nproc:128
Pcrystal executable in: /users/fbodo/SVN_PUB_NEW/bin/Linux-gfortran_new/std/Pcrystal
Master system: Linux c006 5.15.0-47-generic #51-Ubuntu SMP Thu Aug 11 07:51:15 UTC 2022 x86_64 x86_64 x86_64 GNU/Linux
ls -ltr $BINDIR
total 420340
-rwxr-xr-x 1 fbodo linuxusers 101580248 Oct 28 17:33 properties
-rwxr-xr-x 1 fbodo linuxusers 101643032 Oct 28 17:33 Pproperties
-rwxr-xr-x 1 fbodo linuxusers 112779232 Oct 28 17:33 Pcrystal
-rwxr-xr-x 1 fbodo linuxusers 112716416 Oct 28 17:33 crystal
================================================================================
Module loading in /lustre/scratch/client/users/fbodo/prova/tmp_p1285492
================================================================================
Loading gcc and openmpi modules ...
1) # module load gcc/11.2.0
2) # module load openmpi/4.1.6-a4ksrza
================================================================================
Starting Pcrystal SLURM job
================================================================================
Time: Wed Dec 25 10:53:36 AM CST 2024
SLURM job ID: 16977900
Master hostname: c006
User: fbodo
Input file: MgIO32_p21_OPT_exp_pbe0d3.d12
Output file: MgIO32_p21_OPT_exp_pbe0d3.out
Number of processors: 128
Nodes list: c006
================================================================================
Creating temporary directory /lustre/scratch/client/users/fbodo/prova/tmp_p1285492 on each node...
Copying input file MgIO32_p21_OPT_exp_pbe0d3.d12 on each node...
Copying Pcrystal on each node...
================================================================================
Contents of input file
================================================================================
Mg(IO3)2 P21
CRYSTAL
0 0 0
4
11.2563 5.0497  11.2128  119.8256
18
12  0.508000      0.425600      0.259900
12  0.008300      0.920000      0.247100
53  0.158700      0.503100      0.082800
53  0.326800      0.007900      0.400700
53  0.826100      0.013700      0.418900
53  0.661100      0.509700      0.066100
 8  0.333100      0.655000      0.143900
 8  0.057000      0.709000     -0.067000
 8  0.127000      0.660000      0.214000
 8  0.361000      0.199000      0.281000
 8  0.176000      0.203000      0.385000
 8  0.444000      0.142000      0.565000
 8  0.683000      0.214000      0.406600
 8  0.954000      0.166000      0.575000
 8  0.853000      0.160000      0.283000
 8  0.641000      0.628000      0.210000
 8  0.821000      0.705000      0.108000
 8  0.543000      0.696000     -0.079000
OPTGEOM
END
BASISSET
POB-TZVP-REV2
DFT
PBE0-D3
HUGEGRID
END
TOLINTEG
9 9 9 9 27
TOLDEE
9
SHRINK
6 6
END

================================================================================
Time: Wed Dec 25 10:53:37 AM CST 2024
Starting Pcrystal job in /lustre/scratch/client/users/fbodo/prova/tmp_p1285492 on each node...
================================================================================

command /hpc/m3/spack/opt/spack/linux-ubuntu22.04-zen3/gcc-11.2.0/openmpi-4.1.6-a4ksrzarq4qdqcx545m6o47ytlwsgqyk/bin/mpirun -np 128 Pcrystal < /lustre/scratch/client/users/fbodo/prova/tmp_p1285492/INPUT
/hpc/m3/spack/opt/spack/linux-ubuntu22.04-zen3/gcc-11.2.0/openmpi-4.1.6-a4ksrzarq4qdqcx545m6o47ytlwsgqyk/bin/mpirun
         128 PROCESSORS WORKING

         
 *******************************************************************************
 *                                                                             *
 *                               CRYSTAL23                                     *
 *                      public : 1.0.1 - October 2022                          *
 *                       HTTP://WWW.CRYSTAL.UNITO.IT                           *
 *                                                                             *
 *                              MAIN AUTHORS                                   *
 *                                                                             *
 *  R. DOVESI(1,11), V.R. SAUNDERS(2), C. ROETTI(1,11), R. ORLANDO(1,11),      *
 *  C.M. ZICOVICH-WILSON(1,3), F. PASCALE(4), B. CIVALLERI(1,11),              *
 *  K. DOLL(5), N.M. HARRISON(6), I.J. BUSH(7), Ph. D'ARCO(8),                 *
 *  M. LLUNELL(9), M. CAUSA'(10), Y. NOEL(8), L. MASCHIO(1,11), A. ERBA(1,11)  *
 *  M. RE'RAT(14), S. CASASSA(1,11), B.G. SEARLE(2), J.K. DESMARAIS(1)         *
 *                                                                             *
 *        CONTRIBUTIONS TO THE CODE HAVE ALSO BEEN GIVEN BY                    *
 *                                                                             *
 *  M. FERRABONE(1,11), M. DE LA PIERRE(1,11), M. FERRERO(1,11),               *
 *  J. BAIMA(1,11), E. ALBANESE(1,11), M.F. PEINTINGER(12), R. BAST(13),       *
 *  B. KIRTMAN(15), V. LACIVITA(1,11), R. DEMICHELIS(1,16)                     *
 *  G. BRANDEBURG(17), S. SALUSTRO(1,11), G. SANSONE(1,11)                     *
 *  M.T. RUGGIERO(18), L.E. DAGA(1), L. DONA'(1), A. COSSARD(1)                *
 *                                                                             *
 * (1) THEORETICAL CHEMISTRY GROUP - UNIVERSITA' DI TORINO - TORINO (ITALY)    *
 * (2) SCIENTIFIC COMPUTING DEPARTMENT - STFC DARESBURY (UK)                   *
 * (3) UNIVERSIDAD AUTONOMA DEL ESTADO DE MORELOS - CUERNAVACA (MEXICO)        *
 * (4) UNIVERSITE' DE LORRAINE - NANCY (FRANCE)                                *
 * (5) UNIVERSITAET STUTTGART- STUTTGART (GERMANY)                             *
 * (6) IMPERIAL COLLEGE - LONDON (UK)                                          *
 * (7) SCIENTIFIC COMPUTING DEPARTMENT - STFC RAL (UK)                         *
 * (8) UPMC - SORBONNE UNIVERSITES - PARIS (FRANCE)                            *
 * (9) UNIVERSIDAD DE BARCELONA - BARCELONA (SPAIN)                            *
 *(10) UNIVERSITA' DI NAPOLI "FEDERICO II" - NAPOLI (ITALY)                    *
 *(11) NIS - NANOSTRUCTURED INTERFACES AND SURFACES - TORINO (ITALY)           *
 *(12) MPI FUER CHEMISCHE ENERGIEKONVERSION - MUELHEIM AN DER RUHR (GERMANY)   *
 *(13) UNIVERSITY OF TROMSO - TROMSO (NORWAY)                                  *
 *(14) UNIVERSITE' DE PAU ET DES PAYS DE L'ADOUR - PAU (FRANCE)                *
 *(15) UNIVERSITY OF CALIFORNIA SANTA BARBARA - SANTA BARBARA (USA)            *
 *(16) CURTIN UNIVERSITY - PERTH (AUSTRALIA)                                   *
 *(17) UNIVERSITY COLLEGE LONDON - LONDON (UK)                                 *
 *(18) UNIVERSITY OF VERMONT - BURLINGTON (USA)                                *
 *                                                                             *
 *******************************************************************************
 EEEEEEEEEE STARTING  DATE 25 12 2024 TIME 10:53:40.2
 Mg(IO3)2 P21                                                                    

 CRYSTAL CALCULATION
 (INPUT ACCORDING TO THE INTERNATIONAL TABLES FOR X-RAY CRYSTALLOGRAPHY)
 CRYSTAL FAMILY                       :  MONOCLINIC  
 CRYSTAL CLASS  (GROTH - 1921)        :  MONOCLINIC SPHENOIDAL                

 SPACE GROUP (NONCENTROSYMMETRIC)     :  P 21            

 LATTICE PARAMETERS  (ANGSTROMS AND DEGREES) - CONVENTIONAL CELL
        A           B           C        ALPHA        BETA       GAMMA
    11.25630     5.04970    11.21280    90.00000   119.82560    90.00000


 NUMBER OF IRREDUCIBLE ATOMS IN THE CONVENTIONAL CELL:   18

 INPUT COORDINATES

 ATOM AT. N.              COORDINATES
   1  12     5.080000000000E-01  4.256000000000E-01  2.599000000000E-01
   2  12     8.300000000000E-03  9.200000000000E-01  2.471000000000E-01
   3  53     1.587000000000E-01  5.031000000000E-01  8.280000000000E-02
   4  53     3.268000000000E-01  7.900000000000E-03  4.007000000000E-01
   5  53     8.261000000000E-01  1.370000000000E-02  4.189000000000E-01
   6  53     6.611000000000E-01  5.097000000000E-01  6.610000000000E-02
   7   8     3.331000000000E-01  6.550000000000E-01  1.439000000000E-01
   8   8     5.700000000000E-02  7.090000000000E-01 -6.700000000000E-02
   9   8     1.270000000000E-01  6.600000000000E-01  2.140000000000E-01
  10   8     3.610000000000E-01  1.990000000000E-01  2.810000000000E-01
  11   8     1.760000000000E-01  2.030000000000E-01  3.850000000000E-01
  12   8     4.440000000000E-01  1.420000000000E-01  5.650000000000E-01
  13   8     6.830000000000E-01  2.140000000000E-01  4.066000000000E-01
  14   8     9.540000000000E-01  1.660000000000E-01  5.750000000000E-01
  15   8     8.530000000000E-01  1.600000000000E-01  2.830000000000E-01
  16   8     6.410000000000E-01  6.280000000000E-01  2.100000000000E-01
  17   8     8.210000000000E-01  7.050000000000E-01  1.080000000000E-01
  18   8     5.430000000000E-01  6.960000000000E-01 -7.900000000000E-02

 *******************************************************************************

 << INFORMATION >>: FROM NOW ON, ALL COORDINATES REFER TO THE PRIMITIVE CELL

 *******************************************************************************

 LATTICE PARAMETERS  (ANGSTROMS AND DEGREES) - PRIMITIVE CELL
       A          B          C        ALPHA      BETA     GAMMA        VOLUME
   11.25630    5.04970   11.21280    90.00000 119.82560  90.00000    552.925324

 COORDINATES OF THE EQUIVALENT ATOMS (FRACTIONAL UNITS)

 N. ATOM EQUIV AT. N.          X                  Y                  Z

   1   1   1   12 MG   -4.92000000000E-01  4.25600000000E-01  2.59900000000E-01
   2   1   2   12 MG    4.92000000000E-01 -7.44000000000E-02 -2.59900000000E-01

   3   2   1   12 MG    8.30000000000E-03 -8.00000000000E-02  2.47100000000E-01
   4   2   2   12 MG   -8.30000000000E-03  4.20000000000E-01 -2.47100000000E-01

   5   3   1   53 I     1.58700000000E-01 -4.96900000000E-01  8.28000000000E-02
   6   3   2   53 I    -1.58700000000E-01  3.10000000000E-03 -8.28000000000E-02

   7   4   1   53 I     3.26800000000E-01  7.90000000000E-03  4.00700000000E-01
   8   4   2   53 I    -3.26800000000E-01 -4.92100000000E-01 -4.00700000000E-01

   9   5   1   53 I    -1.73900000000E-01  1.37000000000E-02  4.18900000000E-01
  10   5   2   53 I     1.73900000000E-01 -4.86300000000E-01 -4.18900000000E-01

  11   6   1   53 I    -3.38900000000E-01 -4.90300000000E-01  6.61000000000E-02
  12   6   2   53 I     3.38900000000E-01  9.70000000000E-03 -6.61000000000E-02

  13   7   1    8 O     3.33100000000E-01 -3.45000000000E-01  1.43900000000E-01
  14   7   2    8 O    -3.33100000000E-01  1.55000000000E-01 -1.43900000000E-01

  15   8   1    8 O     5.70000000000E-02 -2.91000000000E-01 -6.70000000000E-02
  16   8   2    8 O    -5.70000000000E-02  2.09000000000E-01  6.70000000000E-02

  17   9   1    8 O     1.27000000000E-01 -3.40000000000E-01  2.14000000000E-01
  18   9   2    8 O    -1.27000000000E-01  1.60000000000E-01 -2.14000000000E-01

  19  10   1    8 O     3.61000000000E-01  1.99000000000E-01  2.81000000000E-01
  20  10   2    8 O    -3.61000000000E-01 -3.01000000000E-01 -2.81000000000E-01

  21  11   1    8 O     1.76000000000E-01  2.03000000000E-01  3.85000000000E-01
  22  11   2    8 O    -1.76000000000E-01 -2.97000000000E-01 -3.85000000000E-01

  23  12   1    8 O     4.44000000000E-01  1.42000000000E-01 -4.35000000000E-01
  24  12   2    8 O    -4.44000000000E-01 -3.58000000000E-01  4.35000000000E-01

  25  13   1    8 O    -3.17000000000E-01  2.14000000000E-01  4.06600000000E-01
  26  13   2    8 O     3.17000000000E-01 -2.86000000000E-01 -4.06600000000E-01

  27  14   1    8 O    -4.60000000000E-02  1.66000000000E-01 -4.25000000000E-01
  28  14   2    8 O     4.60000000000E-02 -3.34000000000E-01  4.25000000000E-01

  29  15   1    8 O    -1.47000000000E-01  1.60000000000E-01  2.83000000000E-01
  30  15   2    8 O     1.47000000000E-01 -3.40000000000E-01 -2.83000000000E-01

  31  16   1    8 O    -3.59000000000E-01 -3.72000000000E-01  2.10000000000E-01
  32  16   2    8 O     3.59000000000E-01  1.28000000000E-01 -2.10000000000E-01

  33  17   1    8 O    -1.79000000000E-01 -2.95000000000E-01  1.08000000000E-01
  34  17   2    8 O     1.79000000000E-01  2.05000000000E-01 -1.08000000000E-01

  35  18   1    8 O    -4.57000000000E-01 -3.04000000000E-01 -7.90000000000E-02
  36  18   2    8 O     4.57000000000E-01  1.96000000000E-01  7.90000000000E-02

 NUMBER OF SYMMETRY OPERATORS         :    2
 *******************************************************************************
 * GEOMETRY EDITING - INPUT COORDINATES ARE GIVEN IN ANGSTROM         
 *******************************************************************************

 GEOMETRY NOW FULLY CONSISTENT WITH THE GROUP
 INFORMATION **** NEW DEFAULT **** FINALRUN 4 FOR GEOMETRY OPTIMIZATIONS
 INFORMATION **** NEW DEFAULT **** OPTGEOM OPTIMIZES BOTH ATOMIC COORDINATES AND CELL PARAMETERS
 INFORMATION **** NEW DEFAULT **** TOL. ON ATOMIC DISP TO REDEFINE REF. GEOMETRY: 0.8 Angs
 INFORMATION **** NEW DEFAULT **** N POINTS TO REDEFINE REF. GEOMETRY: N OF OPT DEGS OF FREEDOM
 INFORMATION **** NEW DEFAULT **** TOL. ON ENERGY TO REDEFINE REF. GEOMETRY: 10**-3*(5*N. ATOMS)

 IMPORTANT INFORMATION:
 THE COORDINATE SYSTEM ADOPTED IN THE OPTIMIZATION IS NOT IN
 GENERAL HOMOGENEOUS UNITS. FOR THIS REASON THE GRADIENT AND 
 HESSIAN MATRIX IN TERMS OF THIS SYSTEM ARE GIVEN WITHOUT
 UNITS. FOR MORE DETAILS SEE THE MANUAL.

 *******************************************************************************
 COMBINED CELL/ATOM OPTIMIZATION CONTROL

 INITIAL TRUST RADIUS         0.50000 MAXIMUM TRUST RADIUS               4.00000
 MAXIMUM GRADIENT COMPONENT   0.00045 MAXIMUM DISPLACEMENT COMPONENT     0.00180
 R.M.S. OF GRADIENT COMPONENT 0.00030 R.M.S. OF DISPLACEMENT COMPONENTS  0.00120
 THRESHOLD ON ENERGY CHANGE 0.100E-06 EXTRAPOLATING POLYNOMIAL ORDER           2
 MAXIMUM ALLOWED NUMBER OF STEPS   -1 SORTING OF ENERGY POINTS:               NO
 ANALYTICAL  GRADIENT                 HESSIAN UPDATING                      BFGS
 STEP SIZE NUMERICAL GRADIENT 0.00100
 INITIAL HESSIAN MATRIX: SCHLEGEL MODEL 2
 *******************************************************************************


 GCALCO - MAX INDICES DIRECT LATTICE VECTOR    11    23    12
 NO.OF VECTORS CREATED 6999 STARS 1828 RMAX   184.81542 BOHR

 GEOMETRY FOR WAVE FUNCTION - DIMENSIONALITY OF THE SYSTEM    3
 (NON PERIODIC DIRECTION: LATTICE PARAMETER FORMALLY SET TO 500)
 *******************************************************************************
 LATTICE PARAMETERS (ANGSTROMS AND DEGREES) - BOHR = 0.5291772083 ANGSTROM
 PRIMITIVE CELL - CENTRING CODE 1/0 VOLUME=   552.925324 - DENSITY  4.490 g/cm^3
         A              B              C           ALPHA      BETA       GAMMA 
    11.25630000     5.04970000    11.21280000    90.000000 119.825600  90.000000
 *******************************************************************************
 ATOMS IN THE ASYMMETRIC UNIT   18 - ATOMS IN THE UNIT CELL:   36
     ATOM                 X/A                 Y/B                 Z/C    
 *******************************************************************************
      1 T  12 MG   -4.920000000000E-01  4.256000000000E-01  2.599000000000E-01
      2 F  12 MG    4.920000000000E-01 -7.440000000000E-02 -2.599000000000E-01
      3 T  12 MG    8.300000000000E-03 -8.000000000000E-02  2.471000000000E-01
      4 F  12 MG   -8.300000000000E-03  4.200000000000E-01 -2.471000000000E-01
      5 T  53 I     1.587000000000E-01 -4.969000000000E-01  8.280000000000E-02
      6 F  53 I    -1.587000000000E-01  3.100000000000E-03 -8.280000000000E-02
      7 T  53 I     3.268000000000E-01  7.900000000000E-03  4.007000000000E-01
      8 F  53 I    -3.268000000000E-01 -4.921000000000E-01 -4.007000000000E-01
      9 T  53 I    -1.739000000000E-01  1.370000000000E-02  4.189000000000E-01
     10 F  53 I     1.739000000000E-01 -4.863000000000E-01 -4.189000000000E-01
     11 T  53 I    -3.389000000000E-01 -4.903000000000E-01  6.610000000000E-02
     12 F  53 I     3.389000000000E-01  9.700000000000E-03 -6.610000000000E-02
     13 T   8 O     3.331000000000E-01 -3.450000000000E-01  1.439000000000E-01
     14 F   8 O    -3.331000000000E-01  1.550000000000E-01 -1.439000000000E-01
     15 T   8 O     5.700000000000E-02 -2.910000000000E-01 -6.700000000000E-02
     16 F   8 O    -5.700000000000E-02  2.090000000000E-01  6.700000000000E-02
     17 T   8 O     1.270000000000E-01 -3.400000000000E-01  2.140000000000E-01
     18 F   8 O    -1.270000000000E-01  1.600000000000E-01 -2.140000000000E-01
     19 T   8 O     3.610000000000E-01  1.990000000000E-01  2.810000000000E-01
     20 F   8 O    -3.610000000000E-01 -3.010000000000E-01 -2.810000000000E-01
     21 T   8 O     1.760000000000E-01  2.030000000000E-01  3.850000000000E-01
     22 F   8 O    -1.760000000000E-01 -2.970000000000E-01 -3.850000000000E-01
     23 T   8 O     4.440000000000E-01  1.420000000000E-01 -4.350000000000E-01
     24 F   8 O    -4.440000000000E-01 -3.580000000000E-01  4.350000000000E-01
     25 T   8 O    -3.170000000000E-01  2.140000000000E-01  4.066000000000E-01
     26 F   8 O     3.170000000000E-01 -2.860000000000E-01 -4.066000000000E-01
     27 T   8 O    -4.600000000000E-02  1.660000000000E-01 -4.250000000000E-01
     28 F   8 O     4.600000000000E-02 -3.340000000000E-01  4.250000000000E-01
     29 T   8 O    -1.470000000000E-01  1.600000000000E-01  2.830000000000E-01
     30 F   8 O     1.470000000000E-01 -3.400000000000E-01 -2.830000000000E-01
     31 T   8 O    -3.590000000000E-01 -3.720000000000E-01  2.100000000000E-01
     32 F   8 O     3.590000000000E-01  1.280000000000E-01 -2.100000000000E-01
     33 T   8 O    -1.790000000000E-01 -2.950000000000E-01  1.080000000000E-01
     34 F   8 O     1.790000000000E-01  2.050000000000E-01 -1.080000000000E-01
     35 T   8 O    -4.570000000000E-01 -3.040000000000E-01 -7.900000000000E-02
     36 F   8 O     4.570000000000E-01  1.960000000000E-01  7.900000000000E-02

 T = ATOM BELONGING TO THE ASYMMETRIC UNIT

 ****    2 SYMMOPS - TRANSLATORS IN FRACTIONAL UNITS
 **** MATRICES AND TRANSLATORS IN THE CRYSTALLOGRAPHIC REFERENCE FRAME
   V INV                    ROTATION MATRICES                   TRANSLATORS
   1   1  1.00  0.00  0.00  0.00  1.00  0.00  0.00  0.00  1.00  0.00  0.00  0.00
   2   2 -1.00  0.00 -0.00 -0.00  1.00 -0.00  0.00  0.00 -1.00  0.00  0.50  0.00

 DIRECT LATTICE VECTORS CARTESIAN COMPONENTS (ANGSTROM)
          X                    Y                    Z
   0.112563000000E+02   0.689249588262E-15   0.000000000000E+00
   0.000000000000E+00   0.504970000000E+01   0.000000000000E+00
  -0.557681651552E+01   0.686585981474E-15   0.972758970106E+01


 CARTESIAN COORDINATES - PRIMITIVE CELL
 *******************************************************************************
 *      ATOM          X(ANGSTROM)         Y(ANGSTROM)         Z(ANGSTROM)
 *******************************************************************************
    1    12 MG    4.268785787616E+00  2.149152320000E+00  2.528200563306E+00
    2    12 MG   -4.268785787616E+00 -3.756976800000E-01 -2.528200563306E+00
    3    12 MG   -1.284604070985E+00 -4.039760000000E-01  2.403687415132E+00
    4    12 MG    1.284604070985E+00  2.120874000000E+00 -2.403687415132E+00
    5    53 I     1.324614402515E+00 -2.509195930000E+00  8.054444272479E-01
    6    53 I    -1.324614402515E+00  1.565407000000E-02 -8.054444272479E-01
    7    53 I     1.443928462230E+00  3.989263000000E-02  3.897845193215E+00
    8    53 I    -1.443928462230E+00 -2.484957370000E+00 -3.897845193215E+00
    9    53 I     1.283217507170E+00  6.918089000000E-02 -5.652702375287E+00
   10    53 I    -1.283217507170E+00 -2.455669110000E+00  5.652702375287E+00
   11    53 I    -4.183387641676E+00 -2.475867910000E+00  6.429936792402E-01
   12    53 I     4.183387641676E+00  4.898209000000E-02 -6.429936792402E-01
   13     8 O     2.946969633416E+00 -1.742146500000E+00  1.399800157983E+00
   14     8 O    -2.946969633416E+00  7.827035000000E-01 -1.399800157983E+00
   15     8 O     1.015255806540E+00 -1.469462700000E+00 -6.517485099711E-01
   16     8 O    -1.015255806540E+00  1.055387300000E+00  6.517485099711E-01
   17     8 O     2.361113656783E-01 -1.716898000000E+00  2.081704196027E+00
   18     8 O    -2.361113656783E-01  8.079520000000E-01 -2.081704196027E+00
   19     8 O     2.496438859138E+00  1.004890300000E+00  2.733452705998E+00
   20     8 O    -2.496438859138E+00 -1.519959700000E+00 -2.733452705998E+00
   21     8 O    -1.659655584759E-01  1.025089100000E+00  3.745122034909E+00
   22     8 O     1.659655584759E-01 -1.499760900000E+00 -3.745122034909E+00
   23     8 O    -3.832587615748E+00  7.170574000000E-01 -4.231501519962E+00
   24     8 O     3.832587615748E+00 -1.807792600000E+00  4.231501519962E+00
   25     8 O    -2.589641796894E-01  1.080635800000E+00 -5.772351728610E+00
   26     8 O     2.589641796894E-01 -1.444214200000E+00  5.772351728610E+00
   27     8 O     1.852357219097E+00  8.382502000000E-01 -4.134225622951E+00
   28     8 O    -1.852357219097E+00 -1.686599800000E+00  4.134225622951E+00
   29     8 O    -3.232915173893E+00  8.079520000000E-01  2.752907885400E+00
   30     8 O     3.232915173893E+00 -1.716898000000E+00 -2.752907885400E+00
   31     8 O    -5.212143168260E+00 -1.878488400000E+00  2.042793837223E+00
   32     8 O     5.212143168260E+00  6.463616000000E-01 -2.042793837223E+00
   33     8 O    -2.617173883676E+00 -1.489661500000E+00  1.050579687715E+00
   34     8 O     2.617173883676E+00  1.035188500000E+00 -1.050579687715E+00
   35     8 O    -4.703560595274E+00 -1.535108800000E+00 -7.684795863839E-01
   36     8 O     4.703560595274E+00  9.897412000000E-01  7.684795863839E-01

 *******************************************************************************
 STARTING BASIS SET HANDLING 
 *******************************************************************************

 Loading internal basis set: POB-TZVP-REV2       

 Please cite in your publication:
 D. Vilela Oliveira, M. F. Peintinger, J. Laun, and T. Bredow, J. Comput. Chem., 40 (2019)                                                                                                                                                                       
 J. Laun, and T. Bredow, J. Comput. Chem., 42 (2021)                                                                                                                                                                                                             
 J. Laun, and T. Bredow, J. Comput. Chem., 43 (2022)                                                                                                                                                                                                             

 *******************************************************************************
 *** PSEUDOPOTENTIAL INFORMATION ***
 *******************************************************************************

 ATOMIC NUMBER  53, NUCLEAR CHARGE 25.000,                      PSEUDOPOTENTIAL
   TYPE       EXPONENT      COEFF.    N      EXPONENT      COEFF.    N
  P0 TMS    40.0333760   49.9896490   0    17.3005760  281.0065560   0
             8.8517200   61.4167390   0
  P1 TMS    15.7201410   67.4162390   0    15.2082220  134.8076960   0
             8.2941860   14.5665480   0     7.7539490   28.9684220   0
  P2 TMS    13.8177510   35.5387560   0    13.5878050   53.3397590   0
             6.9476300    9.7164660   0     6.9600990   14.9775000   0
  P3 TMS    18.5229500  -20.1766180   0    18.2510350  -26.0880770   0
             7.5579010   -0.2204340   0     7.5974040   -0.2216460   0

 *******************************************************************************
 LOCAL ATOMIC FUNCTIONS BASIS SET
 *******************************************************************************
   ATOM   X(AU)   Y(AU)   Z(AU)  N. TYPE  EXPONENT  S COEF   P COEF   D/F/G COEF
 *******************************************************************************
   1 MG   8.067   4.061   4.778
                                  1 S  
                                         3.144E+04 6.091E-04 0.000E+00 0.000E+00
                                         4.716E+03 4.707E-03 0.000E+00 0.000E+00
                                         1.073E+03 2.414E-02 0.000E+00 0.000E+00
                                         3.036E+02 9.363E-02 0.000E+00 0.000E+00
                                         9.863E+01 2.665E-01 0.000E+00 0.000E+00
                                         3.494E+01 4.789E-01 0.000E+00 0.000E+00
                                         1.286E+01 3.370E-01 0.000E+00 0.000E+00
                                  2 S  
                                         6.488E+01 1.918E-02 0.000E+00 0.000E+00
                                         1.973E+01 9.091E-02 0.000E+00 0.000E+00
                                         2.895E+00-3.956E-01 0.000E+00 0.000E+00
                                  3 S  
                                         1.196E+00 1.683E+00 0.000E+00 0.000E+00
                                         5.433E-01 5.214E-01 0.000E+00 0.000E+00
                                  4 S  
                                         8.347E-01 1.000E+00 0.000E+00 0.000E+00
                                  5 S  
                                         1.451E-01 1.000E+00 0.000E+00 0.000E+00
                           6-     8 P  
                                         1.799E+02 0.000E+00 5.380E-03 0.000E+00
                                         4.212E+01 0.000E+00 3.932E-02 0.000E+00
                                         1.312E+01 0.000E+00 1.574E-01 0.000E+00
                                         4.626E+00 0.000E+00 3.592E-01 0.000E+00
                                         1.670E+00 0.000E+00 4.553E-01 0.000E+00
                           9-    11 P  
                                         5.663E-01 0.000E+00 1.000E+00 0.000E+00
                          12-    14 P  
                                         1.881E-01 0.000E+00 1.000E+00 0.000E+00
                          15-    19 D  
                                         2.936E-01 0.000E+00 0.000E+00 1.000E+00
   2 MG  -8.067  -0.710  -4.778
   3 MG  -2.428  -0.763   4.542
   4 MG   2.428   4.008  -4.542
   5 I    2.503  -4.742   1.522
                                 77 S  
                                         5.900E+03 2.419E-04 0.000E+00 0.000E+00
                                         8.985E+02 1.547E-03 0.000E+00 0.000E+00
                                         2.004E+02 4.284E-03 0.000E+00 0.000E+00
                                         3.142E+01-3.942E-02 0.000E+00 0.000E+00
                                         1.565E+01 9.609E-01 0.000E+00 0.000E+00
                                 78 S  
                                         1.182E+01 7.596E-01 0.000E+00 0.000E+00
                                         6.461E+00 4.250E-01 0.000E+00 0.000E+00
                                 79 S  
                                         2.221E+00 7.013E-01 0.000E+00 0.000E+00
                                         1.042E+00 2.987E-01 0.000E+00 0.000E+00
                                 80 S  
                                         2.321E-01 1.000E+00 0.000E+00 0.000E+00
                          81-    83 P  
                                         1.973E+02 0.000E+00 7.395E-04 0.000E+00
                                         2.006E+01 0.000E+00 6.617E-02 0.000E+00
                                         9.763E+00 0.000E+00-2.855E-01 0.000E+00
                          84-    86 P  
                                         1.298E+01 0.000E+00-4.910E-02 0.000E+00
                                         3.620E+00 0.000E+00 3.891E-01 0.000E+00
                                         2.023E+00 0.000E+00 6.561E-01 0.000E+00
                                         1.037E+00 0.000E+00 3.180E-01 0.000E+00
                          87-    89 P  
                                         3.996E-01 0.000E+00 1.000E+00 0.000E+00
                          90-    92 P  
                                         1.222E-01 0.000E+00 1.000E+00 0.000E+00
                          93-    97 D  
                                         1.191E+02 0.000E+00 0.000E+00 8.260E-04
                                         3.340E+01 0.000E+00 0.000E+00 6.838E-03
                                         1.781E+01 0.000E+00 0.000E+00-1.031E-02
                                         4.899E+00 0.000E+00 0.000E+00 2.267E-01
                                         2.452E+00 0.000E+00 0.000E+00 4.418E-01
                                         1.182E+00 0.000E+00 0.000E+00 3.678E-01
                          98-   102 D  
                                         1.004E+00 0.000E+00 0.000E+00 1.000E+00
                         103-   107 D  
                                         5.278E-01 0.000E+00 0.000E+00 1.000E+00
                         108-   112 D  
                                         2.010E-01 0.000E+00 0.000E+00 1.000E+00
   6 I   -2.503   0.030  -1.522
   7 I    2.729   0.075   7.366
   8 I   -2.729  -4.696  -7.366
   9 I    2.425   0.131 -10.682
  10 I   -2.425  -4.641  10.682
  11 I   -7.905  -4.679   1.215
  12 I    7.905   0.093  -1.215
  13 O    5.569  -3.292   2.645
                                365 S  
                                         2.703E+04 2.173E-04 0.000E+00 0.000E+00
                                         4.052E+03 1.684E-03 0.000E+00 0.000E+00
                                         9.223E+02 8.740E-03 0.000E+00 0.000E+00
                                         2.612E+02 3.524E-02 0.000E+00 0.000E+00
                                         8.535E+01 1.115E-01 0.000E+00 0.000E+00
                                         3.104E+01 2.559E-01 0.000E+00 0.000E+00
                                366 S  
                                         1.226E+01 3.977E-01 0.000E+00 0.000E+00
                                         4.999E+00 2.463E-01 0.000E+00 0.000E+00
                                367 S  
                                         1.099E+00 1.000E+00 0.000E+00 0.000E+00
                                368 S  
                                         3.566E-01 1.000E+00 0.000E+00 0.000E+00
                         369-   371 P  
                                         6.327E+01 0.000E+00 6.069E-03 0.000E+00
                                         1.463E+01 0.000E+00 4.191E-02 0.000E+00
                                         4.450E+00 0.000E+00 1.615E-01 0.000E+00
                                         1.528E+00 0.000E+00 3.571E-01 0.000E+00
                         372-   374 P  
                                         5.490E-01 0.000E+00 1.000E+00 0.000E+00
                         375-   377 P  
                                         1.859E-01 0.000E+00 1.000E+00 0.000E+00
                         378-   382 D  
                                         4.535E-01 0.000E+00 0.000E+00 1.000E+00
  14 O   -5.569   1.479  -2.645
  15 O    1.919  -2.777  -1.232
  16 O   -1.919   1.994   1.232
  17 O    0.446  -3.244   3.934
  18 O   -0.446   1.527  -3.934
  19 O    4.718   1.899   5.165
  20 O   -4.718  -2.872  -5.165
  21 O   -0.314   1.937   7.077
  22 O    0.314  -2.834  -7.077
  23 O   -7.243   1.355  -7.996
  24 O    7.243  -3.416   7.996
  25 O   -0.489   2.042 -10.908
  26 O    0.489  -2.729  10.908
  27 O    3.500   1.584  -7.813
  28 O   -3.500  -3.187   7.813
  29 O   -6.109   1.527   5.202
  30 O    6.109  -3.244  -5.202
  31 O   -9.850  -3.550   3.860
  32 O    9.850   1.221  -3.860
  33 O   -4.946  -2.815   1.985
  34 O    4.946   1.956  -1.985
  35 O   -8.888  -2.901  -1.452
  36 O    8.888   1.870   1.452

 *******************************************************************************
 FINISHED BASIS SET HANDLING 
 *******************************************************************************

 INFORMATION **** SET_MPP **** PCRYSTAL CALCULATION
 INFORMATION **** READM2 **** NEW DEFAULT: FOCK/KS MATRIX MIXING SET TO 30 %
 INFORMATION **** READM2 **** NEW DEFAULT: FULL DIRECT SCF MODE
 INFORMATION **** READM2 **** NEW DEFAULT: COULOMB BIPOLAR BUFFER SET TO 32 Mb
 INFORMATION **** READM2 **** NEW DEFAULT: EXCHANGE BIPOLAR BUFFER SET TO 32 Mb

 *******************************************************************************
 NEW DEFAULT: DFT INTEGRATION GRID INCREASED TO XLGRID
 NEW DEFAULT: DIIS ACCELERATOR ACTIVE
 USE KEYWORD NODIIS TO TURN IT OFF
 *******************************************************************************

 INFORMATION **** DFTD3_INPUT **** PERFORM LATEST DISPERSION CORRECTION DFT-D3(BJ) WITH AUTOMATIC PARAMETER SETUP
 PLEASE CITE:
 (1) DFT-D3 Reference
  S. Grimme, J. Antony, S. Ehrlich, and H. Krieg, J. Chem. Phys. 132 (2010), 154104
 (2) BJ-Damping Reference
  S. Grimme, S. Ehrlich, and L. Goerigk, J. Comput. Chem. 32 (2011), 1456-1465
 (3) General DFT-D Review
  S. Grimme, A. Hansen, J. G. Brandenburg, and C. Bannwarth,
  Chem. Rev. 116 (2016), 5105-5154

 INFORMATION **** TOLINTEG **** COULOMB AND EXCHANGE SERIES TOLERANCES MODIFIED
 INFORMATION **** TOLDEE **** SCF TOL ON TOTAL ENERGY SET TO           9
 *******************************************************************************
 N. OF ATOMS PER CELL        36  COULOMB OVERLAP TOL         (T1) 10**   -9
 NUMBER OF SHELLS           324  COULOMB PENETRATION TOL     (T2) 10**   -9
 NUMBER OF AO               796  EXCHANGE OVERLAP TOL        (T3) 10**   -9
 N. OF ELECTRONS PER CELL   440  EXCHANGE PSEUDO OVP (F(G))  (T4) 10**   -9
 CORE ELECTRONS PER CELL     88  EXCHANGE PSEUDO OVP (P(G))  (T5) 10**  -27
 N. OF SYMMETRY OPERATORS     2  POLE ORDER IN MONO ZONE                  4
 *******************************************************************************
 TYPE OF CALCULATION :  RESTRICTED CLOSED SHELL
 KOHN-SHAM HAMILTONIAN

 (EXCHANGE)[CORRELATION] FUNCTIONAL:(PERDEW-BURKE-ERNZERHOF)[PERDEW-BURKE-ERNZERHOF]


 HYBRID EXCHANGE - PERCENTAGE OF FOCK EXCHANGE    25.0000
 CORE  PSEUDO POTENTIAL         TOL. ON PSEUDO              (TP) 10**- 6

 CAPPA:IS1  6;IS2  6;IS3  6; K PTS MONK NET  80; SYMMOPS:K SPACE   4;G SPACE   2

 *******************************************************************************
 MAX NUMBER OF SCF CYCLES      50  CONVERGENCE ON DELTAP        10**-19
 WEIGHT OF F(I) IN F(I+1)      30% CONVERGENCE ON ENERGY        10**- 9
 SHRINK. FACT.(MONKH.)    6  6  6  NUMBER OF K POINTS IN THE IBZ     80
 SHRINKING FACTOR(GILAT NET)    6  NUMBER OF K POINTS(GILAT NET)     80
 *******************************************************************************
 *** K POINTS COORDINATES (OBLIQUE COORDINATES IN UNITS OF IS =  6)
   1-R(  0  0  0)   2-C(  1  0  0)   3-C(  2  0  0)   4-R(  3  0  0)
   5-C(  0  1  0)   6-C(  1  1  0)   7-C(  2  1  0)   8-C(  3  1  0)
   9-C(  0  2  0)  10-C(  1  2  0)  11-C(  2  2  0)  12-C(  3  2  0)
  13-R(  0  3  0)  14-C(  1  3  0)  15-C(  2  3  0)  16-R(  3  3  0)
  17-C(  0  0  1)  18-C(  1  0  1)  19-C(  2  0  1)  20-C(  3  0  1)
  21-C(  4  0  1)  22-C(  5  0  1)  23-C(  0  1  1)  24-C(  1  1  1)
  25-C(  2  1  1)  26-C(  3  1  1)  27-C(  4  1  1)  28-C(  5  1  1)
  29-C(  0  2  1)  30-C(  1  2  1)  31-C(  2  2  1)  32-C(  3  2  1)
  33-C(  4  2  1)  34-C(  5  2  1)  35-C(  0  3  1)  36-C(  1  3  1)
  37-C(  2  3  1)  38-C(  3  3  1)  39-C(  4  3  1)  40-C(  5  3  1)
  41-C(  0  0  2)  42-C(  1  0  2)  43-C(  2  0  2)  44-C(  3  0  2)
  45-C(  4  0  2)  46-C(  5  0  2)  47-C(  0  1  2)  48-C(  1  1  2)
  49-C(  2  1  2)  50-C(  3  1  2)  51-C(  4  1  2)  52-C(  5  1  2)
  53-C(  0  2  2)  54-C(  1  2  2)  55-C(  2  2  2)  56-C(  3  2  2)
  57-C(  4  2  2)  58-C(  5  2  2)  59-C(  0  3  2)  60-C(  1  3  2)
  61-C(  2  3  2)  62-C(  3  3  2)  63-C(  4  3  2)  64-C(  5  3  2)
  65-R(  0  0  3)  66-C(  1  0  3)  67-C(  2  0  3)  68-R(  3  0  3)
  69-C(  0  1  3)  70-C(  1  1  3)  71-C(  2  1  3)  72-C(  3  1  3)
  73-C(  0  2  3)  74-C(  1  2  3)  75-C(  2  2  3)  76-C(  3  2  3)
  77-R(  0  3  3)  78-C(  1  3  3)  79-C(  2  3  3)  80-R(  3  3  3)

 DIRECT LATTICE VECTORS COMPON. (A.U.)     RECIP. LATTICE VECTORS COMPON. (A.U.) 
        X            Y            Z              X            Y            Z
   21.2713243    0.0000000    0.0000000      0.2953829   -0.0000000    0.1693427
    0.0000000    9.5425501    0.0000000     -0.0000000    0.6584388   -0.0000000
  -10.5386559    0.0000000   18.3824805      0.0000000    0.0000000    0.3418029

 DISK SPACE FOR EIGENVECTORS (FTN 10)    96309632 REALS

 SYMMETRY ADAPTION OF THE BLOCH FUNCTIONS ENABLED
 TTTTTTTTTTTTTTTTTTTTTTTTTTTTTT gordsh1     TELAPSE        3.74 TCPU        2.24

 MATRIX SIZE: P(G) 3799512, F(G)  358906, P(G) IRR  959470, F(G) IRR  181342
 MAX G-VECTOR INDEX FOR 1- AND 2-ELECTRON INTEGRALS 133

 TTTTTTTTTTTTTTTTTTTTTTTTTTTTTT INPUT       TELAPSE        3.76 TCPU        2.27

 NEIGHBORS OF THE NON-EQUIVALENT ATOMS

 N = NUMBER OF NEIGHBORS AT DISTANCE R
    ATOM  N     R/ANG      R/AU   NEIGHBORS (ATOM LABELS AND CELL INDICES)
   1 MG   1     2.0702     3.9121   24 O    0 1 0
   1 MG   1     2.0886     3.9469   13 O    0 1 0
   1 MG   1     2.1053     3.9784   31 O    1 1 0
   1 MG   1     2.1196     4.0055   19 O    0 0 0
   1 MG   1     2.1224     4.0108   25 O    1 0 1
   1 MG   1     2.1517     4.0662   36 O    0 0 0

   3 MG   1     2.0347     3.8450   17 O    0 0 0
   3 MG   1     2.1875     4.1339   33 O    0 0 0
   3 MG   1     2.2276     4.2096   28 O    0 0 0
   3 MG   1     2.2568     4.2647   21 O    0 0 0
   3 MG   1     2.2960     4.3388   16 O    0 0 0
   3 MG   1     2.3209     4.3859   29 O    0 0 0

   5 I    1     1.8166     3.4329   15 O    0 0 0
   5 I    1     1.8551     3.5056   17 O    0 0 0
   5 I    1     1.8904     3.5724   13 O    0 0 0
   5 I    1     2.7169     5.1342   34 O    0-1 0
   5 I    1     2.7292     5.1574   19 O    0-1 0
   5 I    1     2.7756     5.2452   16 O    0-1 0

   7 I    1     1.7819     3.3674   23 O    1 0 1
   7 I    1     1.8425     3.4818   19 O    0 0 0
   7 I    1     1.8936     3.5784   21 O    0 0 0
   7 I    1     2.6684     5.0426   26 O    0 0 0
   7 I    1     2.8006     5.2924   17 O    0 0 0
   7 I    1     3.0382     5.7415   24 O    0 0 0

   9 I    1     1.7948     3.3916   27 O    0 0 0
   9 I    1     1.8482     3.4925   25 O    0 0 0
   9 I    1     1.8489     3.4939   29 O    0 0-1
   9 I    1     2.7108     5.1228   22 O    0 0 0
   9 I    1     2.9608     5.5952   31 O    0 0-1
   9 I    1     3.0076     5.6836   28 O    0 0-1

  11 I    1     1.7742     3.3528   35 O    0 0 0
  11 I    1     1.8370     3.4715   31 O    0 0 0
  11 I    1     1.8952     3.5814   33 O    0 0 0
  11 I    1     2.8529     5.3912   36 O   -1-1 0
  11 I    1     2.9109     5.5008   29 O    0-1 0
  11 I    1     2.9849     5.6407   14 O    0-1 0

  13 O    1     1.8904     3.5724    5 I    0 0 0
  13 O    1     2.0886     3.9469    1 MG   0-1 0
  13 O    1     2.6989     5.1001   19 O    0-1 0
  13 O    1     2.7954     5.2826   17 O    0 0 0
  13 O    1     2.8310     5.3499   15 O    0 0 0
  13 O    1     2.9677     5.6081   24 O    0 0 0

  15 O    1     1.8166     3.4329    5 I    0 0 0
  15 O    1     2.2960     4.3388    4 MG   0-1 0
  15 O    1     2.7756     5.2452    6 I    0 0 0
  15 O    1     2.8310     5.3499   13 O    0 0 0
  15 O    1     2.8531     5.3915   17 O    0 0 0
  15 O    1     2.9660     5.6050   18 O    0 0 0

  17 O    1     1.8551     3.5056    5 I    0 0 0
  17 O    1     2.0347     3.8450    3 MG   0 0 0
  17 O    1     2.7954     5.2826   13 O    0 0 0
  17 O    1     2.8006     5.2924    7 I    0 0 0
  17 O    1     2.8531     5.3915   15 O    0 0 0
  17 O    1     2.8730     5.4292   21 O    0-1 0

  19 O    1     1.8425     3.4818    7 I    0 0 0
  19 O    1     2.1196     4.0055    1 MG   0 0 0
  19 O    1     2.6989     5.1001   13 O    0 1 0
  19 O    1     2.7292     5.1574    5 I    0 1 0
  19 O    1     2.8482     5.3823   21 O    0 0 0
  19 O    1     2.8525     5.3905   23 O    1 0 1

  21 O    1     1.8936     3.5784    7 I    0 0 0
  21 O    1     2.2568     4.2647    3 MG   0 0 0
  21 O    1     2.6856     5.0750   23 O    1 0 1
  21 O    1     2.7108     5.1228   10 I    0 1 0
  21 O    1     2.8482     5.3823   19 O    0 0 0
  21 O    1     2.8730     5.4292   17 O    0 1 0

  23 O    1     1.7819     3.3674    7 I   -1 0-1
  23 O    1     2.0702     3.9121    2 MG   0 0 0
  23 O    1     2.6856     5.0750   21 O   -1 0-1
  23 O    1     2.6961     5.0949   26 O   -1 0-1
  23 O    1     2.8525     5.3905   19 O   -1 0-1
  23 O    1     2.9677     5.6081   14 O    0 0 0

  25 O    1     1.8482     3.4925    9 I    0 0 0
  25 O    1     2.1224     4.0108    1 MG  -1 0-1
  25 O    1     2.6684     5.0426    8 I    0 1 0
  25 O    1     2.6833     5.0706   27 O    0 0 0
  25 O    1     2.6961     5.0949   24 O   -1 1-1
  25 O    1     2.8801     5.4426   29 O    0 0-1

  27 O    1     1.7948     3.3916    9 I    0 0 0
  27 O    1     2.2276     4.2096    4 MG   0 0 0
  27 O    1     2.6833     5.0706   25 O    0 0 0
  27 O    1     2.8828     5.4478   29 O    0 0-1
  27 O    1     2.9089     5.4970   22 O    0 0 0
  27 O    1     2.9284     5.5339   18 O    0 0 0

  29 O    1     1.8489     3.4939    9 I    0 0 1
  29 O    1     2.3209     4.3859    3 MG   0 0 0
  29 O    1     2.8801     5.4426   25 O    0 0 1
  29 O    1     2.8828     5.4478   27 O    0 0 1
  29 O    1     2.9109     5.5008   11 I    0 1 0
  29 O    1     2.9251     5.5276   33 O    0 0 0

  31 O    1     1.8370     3.4715   11 I    0 0 0
  31 O    1     2.1053     3.9784    1 MG  -1-1 0
  31 O    1     2.8053     5.3012   33 O    0 0 0
  31 O    1     2.8601     5.4047   36 O   -1-1 0
  31 O    1     2.8775     5.4376   35 O    0 0 0
  31 O    1     2.9012     5.4824   25 O    0-1 1

  33 O    1     1.8952     3.5814   11 I    0 0 0
  33 O    1     2.1875     4.1339    3 MG   0 0 0
  33 O    1     2.7169     5.1342    6 I    0 0 0
  33 O    1     2.7684     5.2315   35 O    0 0 0
  33 O    1     2.8053     5.3012   31 O    0 0 0
  33 O    1     2.9251     5.5276   29 O    0 0 0

  35 O    1     1.7742     3.3528   11 I    0 0 0
  35 O    1     2.1517     4.0662    2 MG   0 0 0
  35 O    1     2.7684     5.2315   33 O    0 0 0
  35 O    1     2.8529     5.3912   12 I   -1 0 0
  35 O    1     2.8601     5.4047   32 O   -1 0 0
  35 O    1     2.8775     5.4376   31 O    0 0 0


 SYMMETRY ALLOWED ELASTIC DISTORTION 1
  0.5773503  0.0000000  0.0000000
  0.0000000  0.5773503  0.0000000
  0.0000000  0.0000000  0.5773503

 SYMMETRY ALLOWED ELASTIC DISTORTION 2
  0.8164966  0.0000000  0.0000000
  0.0000000 -0.4082483  0.0000000
  0.0000000  0.0000000 -0.4082483

 SYMMETRY ALLOWED ELASTIC DISTORTION 3
  0.0000000  0.0000000  0.0000000
  0.0000000  0.7071068  0.0000000
  0.0000000  0.0000000 -0.7071068

 SYMMETRY ALLOWED ELASTIC DISTORTION 4
 -0.0000000  0.0000000  0.7071068
  0.0000000  0.0000000  0.0000000
  0.7071068  0.0000000  0.0000000

 SYMMETRY ALLOWED INTERNAL DEGREE(S) OF FREEDOM:  53
 TTTTTTTTTTTTTTTTTTTTTTTTTTTTTT SYMM        TELAPSE        3.81 TCPU        2.31
 TTTTTTTTTTTTTTTTTTTTTTTTTTTTTT INT_SCREEN  TELAPSE        3.83 TCPU        2.34

 *******************************************************************************
 *                             OPTIMIZATION STARTS                             *
 *******************************************************************************
 RECLASIFICATION OF INDICES FOR INTEGRAL CALC ACCORDING TO DIFFERENT CRITERIA:
           FIXDELTE                  FIXDELTX              FIXDELTN
          0.10000000               0.80000000                 57
 DEFAULT MAX NUM OF POINTS  114
 *******************************************************************************

 *******************************************************************************
 COORDINATE AND CELL OPTIMIZATION - POINT    1
 WARNING **** EXCBUF **** EXCH. BIPO BUFFER TOO SMALL - TO AVOID I/O SET EXCHSIZE =     6597720

 DFT PARAMETERS

     ATOM       ELECTRONS   NET CHARGE   R(ANGSTROM)
   1  12  MG     12.0000      0.0000     1.60000000
   5  53  I      25.0000      0.0000     1.33000000
  13   8  O       8.0000      0.0000     0.74000000

 SIZE OF GRID=    2984961
 TTTTTTTTTTTTTTTTTTTTTTTTTTTTTT MAKE_GRID2  TELAPSE       16.88 TCPU       15.35
 BECKE WEIGHT FUNCTION
 RADSAFE =     2.00
 TOLERANCES - DENSITY:10**- 6; POTENTIAL:10**- 9; GRID WGT:10**-14

 RADIAL INTEGRATION  - INTERVALS (POINTS,UPPER LIMIT):            1(300,  4.0*R)

 ANGULAR INTEGRATION - INTERVALS (ACCURACY LEVEL [N. POINTS] UPPER LIMIT):
  1(  6[ 146]   0.2)  2( 11[ 302]   0.5)  3( 14[ 590]   0.9)  4( 18[1454]   3.5)
  5( 14[ 590]9999.0)
 TTTTTTTTTTTTTTTTTTTTTTTTTTTTTT INT_CALC    TELAPSE       16.92 TCPU       15.39

 *******************************************************************************
 Mg(IO3)2 P21                                                                    
 CRYSTAL - SCF - TYPE OF CALCULATION :  RESTRICTED CLOSED SHELL
 *******************************************************************************

 CAPPA:IS1  6;IS2  6;IS3  6; K PTS MONK NET  80; SYMMOPS:K SPACE   4;G SPACE   2

 TTTTTTTTTTTTTTTTTTTTTTTTTTTTTT SDIK        TELAPSE       17.91 TCPU       16.38

 AAAAAAAAAAAAAAAAAAAAAAAAAAAAAAAAAAAAAAAAAAAAAAAAAAAAAAAAAAAAAAAAAAAAAAAAAAAAAAA
         ATOMIC WAVEFUNCTION(S)


 NUCLEAR CHARGE 12.0  SYMMETRY SPECIES            S    P
 N. ELECTRONS   12.0  NUMBER OF PRIMITIVE GTOS   14    7
                      NUMBER OF CONTRACTED GTOS   5    3
                      NUMBER OF CLOSED SHELLS     3    1
                      OPEN SHELL OCCUPATION       0    0

  ZNUC  SCFIT    TOTAL HF ENERGY   KINETIC ENERGY   VIRIAL THEOREM             ACCURACY
  12.0     8    -1.994903813E+02  2.003482110E+02 -1.995718306E+00  4.2E-06

 NUCLEAR CHARGE 25.0  SYMMETRY SPECIES            S    P    D
 N. ELECTRONS   25.0  NUMBER OF PRIMITIVE GTOS   10    9    9
                      NUMBER OF CONTRACTED GTOS   4    4    4
                      NUMBER OF CLOSED SHELLS     2    1    1
                      OPEN SHELL OCCUPATION       0    5    0

  ZNUC  SCFIT    TOTAL HF ENERGY   KINETIC ENERGY   VIRIAL THEOREM             ACCURACY
  25.0    10    -2.945672222E+02  1.114753143E+02 -3.642443522E+00  1.4E-06

 NUCLEAR CHARGE  8.0  SYMMETRY SPECIES            S    P
 N. ELECTRONS    8.0  NUMBER OF PRIMITIVE GTOS   10    6
                      NUMBER OF CONTRACTED GTOS   4    3
                      NUMBER OF CLOSED SHELLS     2    0
                      OPEN SHELL OCCUPATION       0    4

  ZNUC  SCFIT    TOTAL HF ENERGY   KINETIC ENERGY   VIRIAL THEOREM             ACCURACY
   8.0    13    -7.480300557E+01  7.484348361E+01 -1.999459164E+00  4.9E-06

 AAAAAAAAAAAAAAAAAAAAAAAAAAAAAAAAAAAAAAAAAAAAAAAAAAAAAAAAAAAAAAAAAAAAAAAAAAAAAAA

 CHARGE NORMALIZATION FACTOR   1.00000000
 TOTAL ATOMIC CHARGES:
  12.0000000  12.0000000  12.0000000  12.0000000  25.0000000  25.0000000
  25.0000000  25.0000000  25.0000000  25.0000000  25.0000000  25.0000000
   8.0000000   8.0000000   8.0000000   8.0000000   8.0000000   8.0000000
   8.0000000   8.0000000   8.0000000   8.0000000   8.0000000   8.0000000
   8.0000000   8.0000000   8.0000000   8.0000000   8.0000000   8.0000000
   8.0000000   8.0000000   8.0000000   8.0000000   8.0000000   8.0000000
 TTTTTTTTTTTTTTTTTTTTTTTTTTTTTT MOQGAD      TELAPSE       17.97 TCPU       16.43
 TTTTTTTTTTTTTTTTTTTTTTTTTTTTTT SHELLXN     TELAPSE       37.58 TCPU       36.02
 TTTTTTTTTTTTTTTTTTTTTTTTTTTTTT MONMO3      TELAPSE       37.88 TCPU       36.32
 NUMERICALLY INTEGRATED DENSITY    439.9999963071
 TTTTTTTTTTTTTTTTTTTTTTTTTTTTTT NUMDFT      TELAPSE       41.00 TCPU       39.44
 CYC   0 ETOT(AU) -4.972917916203E+03 DETOT -4.97E+03 tst  0.00E+00 PX  1.00E+00
 TTTTTTTTTTTTTTTTTTTTTTTTTTTTTT DIIS        TELAPSE       41.05 TCPU       39.49
 TTTTTTTTTTTTTTTTTTTTTTTTTTTTTT FDIK        TELAPSE       50.19 TCPU       48.60
 INSULATING STATE
 TOP OF VALENCE BANDS -    BAND    220; K   65; EIG -2.9914749E-01 AU
 TOP OF VALENCE BANDS -    BAND    220; K    1; EIG -3.0027686E-01 AU
 BOTTOM OF VIRTUAL BANDS - BAND    221; K   65; EIG -1.1631672E-01 AU
 DIRECT ENERGY BAND GAP:   4.9751 eV
 BOTTOM OF VIRTUAL BANDS - BAND    221; K    1; EIG -1.0927381E-01 AU
 TTTTTTTTTTTTTTTTTTTTTTTTTTTTTT PDIG        TELAPSE       50.91 TCPU       49.31
 CHARGE NORMALIZATION FACTOR   1.00000000
 TOTAL ATOMIC CHARGES:
  10.6421239  10.6421239  10.5465696  10.5465696  22.2452543  22.2452543
  22.2375094  22.2375094  22.2351941  22.2351941  22.2319161  22.2319161
   9.2017838   9.2017838   9.1654078   9.1654078   9.1128866   9.1128866
   9.1145389   9.1145389   9.1969373   9.1969373   9.1545075   9.1545075
   9.1240971   9.1240971   9.1494748   9.1494748   9.2078756   9.2078756
   9.1701759   9.1701759   9.1721107   9.1721107   9.0916368   9.0916368
 TTTTTTTTTTTTTTTTTTTTTTTTTTTTTT MOQGAD      TELAPSE       50.92 TCPU       49.32
 TTTTTTTTTTTTTTTTTTTTTTTTTTTTTT SHELLXN     TELAPSE       71.62 TCPU       70.01
 TTTTTTTTTTTTTTTTTTTTTTTTTTTTTT MONMO3      TELAPSE       71.92 TCPU       70.31
 NUMERICALLY INTEGRATED DENSITY    440.0000040864
 TTTTTTTTTTTTTTTTTTTTTTTTTTTTTT NUMDFT      TELAPSE       75.18 TCPU       73.57
 CYC   1 ETOT(AU) -4.966527897926E+03 DETOT  6.39E+00 tst  0.00E+00 PX  1.00E+00
 TTTTTTTTTTTTTTTTTTTTTTTTTTTTTT DIIS        TELAPSE       75.24 TCPU       73.63
 DIIS TEST: 0.11953E+02 AT SCF   CYCLE   1 - MIX   30 %
 TTTTTTTTTTTTTTTTTTTTTTTTTTTTTT FDIK        TELAPSE       77.96 TCPU       76.34
 INSULATING STATE
 TOP OF VALENCE BANDS -    BAND    220; K   68; EIG -1.4194722E-01 AU
 TOP OF VALENCE BANDS -    BAND    220; K    1; EIG -1.4733775E-01 AU
 BOTTOM OF VIRTUAL BANDS - BAND    221; K   65; EIG -4.2504799E-02 AU
 INDIRECT ENERGY BAND GAP:   2.7060 eV
 BOTTOM OF VIRTUAL BANDS - BAND    221; K    1; EIG -3.3517977E-02 AU
 TTTTTTTTTTTTTTTTTTTTTTTTTTTTTT PDIG        TELAPSE       78.47 TCPU       76.84
 CHARGE NORMALIZATION FACTOR   1.00000000
 TOTAL ATOMIC CHARGES:
  10.7866183  10.7866183  10.7945010  10.7945010  24.3175958  24.3175958
  24.2418551  24.2418551  24.0943657  24.0943657  24.1620870  24.1620870
   8.3963820   8.3963820   8.5580239   8.5580239   8.4317816   8.4317816
   8.4573330   8.4573330   8.3955268   8.3955268   8.5302006   8.5302006
   8.5227942   8.5227942   8.4653627   8.4653627   8.4365355   8.4365355
   8.4702563   8.4702563   8.3853261   8.3853261   8.5534545   8.5534545
 TTTTTTTTTTTTTTTTTTTTTTTTTTTTTT MOQGAD      TELAPSE       78.48 TCPU       76.85
 TTTTTTTTTTTTTTTTTTTTTTTTTTTTTT SHELLXN     TELAPSE       99.10 TCPU       97.45
 TTTTTTTTTTTTTTTTTTTTTTTTTTTTTT MONMO3      TELAPSE       99.40 TCPU       97.75
 NUMERICALLY INTEGRATED DENSITY    440.0000120817
 TTTTTTTTTTTTTTTTTTTTTTTTTTTTTT NUMDFT      TELAPSE      102.61 TCPU      100.96
 CYC   2 ETOT(AU) -4.966551799307E+03 DETOT -2.39E-02 tst  1.69E-02 PX  5.84E-01
 TTTTTTTTTTTTTTTTTTTTTTTTTTTTTT DIIS        TELAPSE      102.68 TCPU      101.01
 DIIS TEST: 0.11985E+02 AT SCF   CYCLE   2 - DIIS ACTIVE - HISTORY:     2 CYCLES
 TTTTTTTTTTTTTTTTTTTTTTTTTTTTTT FDIK        TELAPSE      105.22 TCPU      103.52
 INSULATING STATE
 TOP OF VALENCE BANDS -    BAND    220; K   68; EIG -2.3438055E-01 AU
 TOP OF VALENCE BANDS -    BAND    220; K    1; EIG -2.3607252E-01 AU
 BOTTOM OF VIRTUAL BANDS - BAND    221; K   65; EIG -5.1623138E-02 AU
 INDIRECT ENERGY BAND GAP:   4.9731 eV
 BOTTOM OF VIRTUAL BANDS - BAND    221; K    1; EIG -4.1093679E-02 AU
 TTTTTTTTTTTTTTTTTTTTTTTTTTTTTT PDIG        TELAPSE      105.72 TCPU      104.02
 CHARGE NORMALIZATION FACTOR   1.00000000
 TOTAL ATOMIC CHARGES:
  10.7861953  10.7861953  10.7454020  10.7454020  23.1548920  23.1548920
  23.1607586  23.1607586  23.1812663  23.1812663  23.1562922  23.1562922
   8.9235082   8.9235082   8.8181553   8.8181553   8.7369397   8.7369397
   8.7282554   8.7282554   8.9118678   8.9118678   8.8288731   8.8288731
   8.7275261   8.7275261   8.8124730   8.8124730   8.8987039   8.8987039
   8.8824082   8.8824082   8.8469587   8.8469587   8.6995243   8.6995243
 TTTTTTTTTTTTTTTTTTTTTTTTTTTTTT MOQGAD      TELAPSE      105.73 TCPU      104.03
 TTTTTTTTTTTTTTTTTTTTTTTTTTTTTT SHELLXN     TELAPSE      126.39 TCPU      124.68
 TTTTTTTTTTTTTTTTTTTTTTTTTTTTTT MONMO3      TELAPSE      126.69 TCPU      124.98
 NUMERICALLY INTEGRATED DENSITY    440.0000091771
 TTTTTTTTTTTTTTTTTTTTTTTTTTTTTT NUMDFT      TELAPSE      129.77 TCPU      128.06
 CYC   3 ETOT(AU) -4.968655982828E+03 DETOT -2.10E+00 tst  3.53E-03 PX  1.97E-01
 TTTTTTTTTTTTTTTTTTTTTTTTTTTTTT DIIS        TELAPSE      129.83 TCPU      128.11
 DIIS TEST: 0.26088E+00 AT SCF   CYCLE   3 - DIIS ACTIVE - HISTORY:     3 CYCLES
 TTTTTTTTTTTTTTTTTTTTTTTTTTTTTT FDIK        TELAPSE      131.89 TCPU      130.16
 INSULATING STATE
 TOP OF VALENCE BANDS -    BAND    220; K   43; EIG -2.2854806E-01 AU
 TOP OF VALENCE BANDS -    BAND    220; K    1; EIG -2.3116995E-01 AU
 BOTTOM OF VIRTUAL BANDS - BAND    221; K   65; EIG -4.9595724E-02 AU
 INDIRECT ENERGY BAND GAP:   4.8695 eV
 BOTTOM OF VIRTUAL BANDS - BAND    221; K    1; EIG -4.0583365E-02 AU
 TTTTTTTTTTTTTTTTTTTTTTTTTTTTTT PDIG        TELAPSE      132.39 TCPU      130.66
 CHARGE NORMALIZATION FACTOR   1.00000000
 TOTAL ATOMIC CHARGES:
  10.7737915  10.7737915  10.7260830  10.7260830  23.2040483  23.2040483
  23.1908919  23.1908919  23.1253316  23.1253316  23.1523658  23.1523658
   8.8143787   8.8143787   8.8791722   8.8791722   8.7696921   8.7696921
   8.8059452   8.8059452   8.7759188   8.7759188   8.8671111   8.8671111
   8.8497749   8.8497749   8.8021855   8.8021855   8.8289545   8.8289545
   8.8254105   8.8254105   8.7654227   8.7654227   8.8435218   8.8435218
 TTTTTTTTTTTTTTTTTTTTTTTTTTTTTT MOQGAD      TELAPSE      132.40 TCPU      130.67
 TTTTTTTTTTTTTTTTTTTTTTTTTTTTTT SHELLXN     TELAPSE      153.04 TCPU      151.27
 TTTTTTTTTTTTTTTTTTTTTTTTTTTTTT MONMO3      TELAPSE      153.34 TCPU      151.57
 NUMERICALLY INTEGRATED DENSITY    440.0000089143
 TTTTTTTTTTTTTTTTTTTTTTTTTTTTTT NUMDFT      TELAPSE      156.59 TCPU      154.83
 CYC   4 ETOT(AU) -4.968683832073E+03 DETOT -2.78E-02 tst  1.66E-04 PX  2.45E-02
 TTTTTTTTTTTTTTTTTTTTTTTTTTTTTT DIIS        TELAPSE      156.66 TCPU      154.89
 DIIS TEST: 0.11562E+00 AT SCF   CYCLE   4 - DIIS ACTIVE - HISTORY:     4 CYCLES
 TTTTTTTTTTTTTTTTTTTTTTTTTTTTTT FDIK        TELAPSE      158.71 TCPU      156.94
 INSULATING STATE
 TOP OF VALENCE BANDS -    BAND    220; K   68; EIG -2.2892222E-01 AU
 TOP OF VALENCE BANDS -    BAND    220; K    1; EIG -2.3304014E-01 AU
 BOTTOM OF VIRTUAL BANDS - BAND    221; K   65; EIG -4.7880159E-02 AU
 INDIRECT ENERGY BAND GAP:   4.9264 eV
 BOTTOM OF VIRTUAL BANDS - BAND    221; K    1; EIG -3.9532613E-02 AU
 TTTTTTTTTTTTTTTTTTTTTTTTTTTTTT PDIG        TELAPSE      159.22 TCPU      157.44
 CHARGE NORMALIZATION FACTOR   1.00000000
 TOTAL ATOMIC CHARGES:
  10.7585836  10.7585836  10.7192691  10.7192691  23.2244841  23.2244841
  23.1852885  23.1852885  23.1424982  23.1424982  23.1620394  23.1620394
   8.8244382   8.8244382   8.8665144   8.8665144   8.7631070   8.7631070
   8.7672405   8.7672405   8.8502436   8.8502436   8.8366947   8.8366947
   8.7864521   8.7864521   8.8219884   8.8219884   8.8580005   8.8580005
   8.8377155   8.8377155   8.8097490   8.8097490   8.7856932   8.7856932
 TTTTTTTTTTTTTTTTTTTTTTTTTTTTTT MOQGAD      TELAPSE      159.23 TCPU      157.45
 TTTTTTTTTTTTTTTTTTTTTTTTTTTTTT SHELLXN     TELAPSE      179.89 TCPU      178.11
 TTTTTTTTTTTTTTTTTTTTTTTTTTTTTT MONMO3      TELAPSE      180.19 TCPU      178.41
 NUMERICALLY INTEGRATED DENSITY    440.0000091196
 TTTTTTTTTTTTTTTTTTTTTTTTTTTTTT NUMDFT      TELAPSE      183.37 TCPU      181.59
 CYC   5 ETOT(AU) -4.968701571758E+03 DETOT -1.77E-02 tst  3.58E-05 PX  1.35E-02
 TTTTTTTTTTTTTTTTTTTTTTTTTTTTTT DIIS        TELAPSE      183.44 TCPU      181.65
 DIIS TEST: 0.17657E-01 AT SCF   CYCLE   5 - DIIS ACTIVE - HISTORY:     5 CYCLES
 TTTTTTTTTTTTTTTTTTTTTTTTTTTTTT FDIK        TELAPSE      185.60 TCPU      183.80
 INSULATING STATE
 TOP OF VALENCE BANDS -    BAND    220; K   44; EIG -2.2932776E-01 AU
 TOP OF VALENCE BANDS -    BAND    220; K    1; EIG -2.3285722E-01 AU
 BOTTOM OF VIRTUAL BANDS - BAND    221; K   65; EIG -4.6703413E-02 AU
 INDIRECT ENERGY BAND GAP:   4.9695 eV
 BOTTOM OF VIRTUAL BANDS - BAND    221; K    1; EIG -3.7641922E-02 AU
 TTTTTTTTTTTTTTTTTTTTTTTTTTTTTT PDIG        TELAPSE      186.10 TCPU      184.30
 CHARGE NORMALIZATION FACTOR   1.00000000
 TOTAL ATOMIC CHARGES:
  10.7622953  10.7622953  10.7187350  10.7187350  23.2070749  23.2070749
  23.1892306  23.1892306  23.1495704  23.1495704  23.1648525  23.1648525
   8.8627231   8.8627231   8.8465605   8.8465605   8.7530503   8.7530503
   8.7743222   8.7743222   8.8269850   8.8269850   8.8521876   8.8521876
   8.8026493   8.8026493   8.8044535   8.8044535   8.8546773   8.8546773
   8.8490718   8.8490718   8.7929982   8.7929982   8.7885625   8.7885625
 TTTTTTTTTTTTTTTTTTTTTTTTTTTTTT MOQGAD      TELAPSE      186.11 TCPU      184.30
 TTTTTTTTTTTTTTTTTTTTTTTTTTTTTT SHELLXN     TELAPSE      206.82 TCPU      205.01
 TTTTTTTTTTTTTTTTTTTTTTTTTTTTTT MONMO3      TELAPSE      207.23 TCPU      205.42
 NUMERICALLY INTEGRATED DENSITY    440.0000091158
 TTTTTTTTTTTTTTTTTTTTTTTTTTTTTT NUMDFT      TELAPSE      210.47 TCPU      208.66
 CYC   6 ETOT(AU) -4.968703279224E+03 DETOT -1.71E-03 tst  1.54E-05 PX  6.67E-03
 TTTTTTTTTTTTTTTTTTTTTTTTTTTTTT DIIS        TELAPSE      210.54 TCPU      208.72
 DIIS TEST: 0.62342E-02 AT SCF   CYCLE   6 - DIIS ACTIVE - HISTORY:     6 CYCLES
 TTTTTTTTTTTTTTTTTTTTTTTTTTTTTT FDIK        TELAPSE      212.61 TCPU      210.78
 INSULATING STATE
 TOP OF VALENCE BANDS -    BAND    220; K   68; EIG -2.3024074E-01 AU
 TOP OF VALENCE BANDS -    BAND    220; K    1; EIG -2.3418673E-01 AU
 BOTTOM OF VIRTUAL BANDS - BAND    221; K   65; EIG -4.6146455E-02 AU
 INDIRECT ENERGY BAND GAP:   5.0095 eV
 BOTTOM OF VIRTUAL BANDS - BAND    221; K    1; EIG -3.7080251E-02 AU
 TTTTTTTTTTTTTTTTTTTTTTTTTTTTTT PDIG        TELAPSE      213.12 TCPU      211.29
 CHARGE NORMALIZATION FACTOR   1.00000000
 TOTAL ATOMIC CHARGES:
  10.7633419  10.7633419  10.7212044  10.7212044  23.2030382  23.2030382
  23.1873398  23.1873398  23.1497385  23.1497385  23.1603796  23.1603796
   8.8396599   8.8396599   8.8626040   8.8626040   8.7609178   8.7609178
   8.7730356   8.7730356   8.8355882   8.8355882   8.8444114   8.8444114
   8.7974226   8.7974226   8.8121932   8.8121932   8.8551764   8.8551764
   8.8420359   8.8420359   8.8042469   8.8042469   8.7876659   8.7876659
 TTTTTTTTTTTTTTTTTTTTTTTTTTTTTT MOQGAD      TELAPSE      213.13 TCPU      211.29
 TTTTTTTTTTTTTTTTTTTTTTTTTTTTTT SHELLXN     TELAPSE      233.71 TCPU      231.84
 TTTTTTTTTTTTTTTTTTTTTTTTTTTTTT MONMO3      TELAPSE      234.01 TCPU      232.13
 NUMERICALLY INTEGRATED DENSITY    440.0000091178
 TTTTTTTTTTTTTTTTTTTTTTTTTTTTTT NUMDFT      TELAPSE      237.26 TCPU      235.38
 CYC   7 ETOT(AU) -4.968704015441E+03 DETOT -7.36E-04 tst  4.48E-06 PX  3.90E-03
 TTTTTTTTTTTTTTTTTTTTTTTTTTTTTT DIIS        TELAPSE      237.33 TCPU      235.44
 DIIS TEST: 0.13550E-02 AT SCF   CYCLE   7 - DIIS ACTIVE - HISTORY:     7 CYCLES
 TTTTTTTTTTTTTTTTTTTTTTTTTTTTTT FDIK        TELAPSE      239.39 TCPU      237.49
 INSULATING STATE
 TOP OF VALENCE BANDS -    BAND    220; K   44; EIG -2.2953097E-01 AU
 TOP OF VALENCE BANDS -    BAND    220; K    1; EIG -2.3327230E-01 AU
 BOTTOM OF VIRTUAL BANDS - BAND    221; K   65; EIG -4.6526960E-02 AU
 INDIRECT ENERGY BAND GAP:   4.9798 eV
 BOTTOM OF VIRTUAL BANDS - BAND    221; K    1; EIG -3.7637582E-02 AU
 TTTTTTTTTTTTTTTTTTTTTTTTTTTTTT PDIG        TELAPSE      239.89 TCPU      237.99
 CHARGE NORMALIZATION FACTOR   1.00000000
 TOTAL ATOMIC CHARGES:
  10.7627887  10.7627887  10.7202489  10.7202489  23.2108942  23.2108942
  23.1848953  23.1848953  23.1447030  23.1447030  23.1609385  23.1609385
   8.8486118   8.8486118   8.8534804   8.8534804   8.7579243   8.7579243
   8.7736690   8.7736690   8.8363239   8.8363239   8.8464862   8.8464862
   8.7972555   8.7972555   8.8129141   8.8129141   8.8558246   8.8558246
   8.8439662   8.8439662   8.7972540   8.7972540   8.7918215   8.7918215
 TTTTTTTTTTTTTTTTTTTTTTTTTTTTTT MOQGAD      TELAPSE      239.90 TCPU      238.00
 TTTTTTTTTTTTTTTTTTTTTTTTTTTTTT SHELLXN     TELAPSE      260.62 TCPU      258.69
 TTTTTTTTTTTTTTTTTTTTTTTTTTTTTT MONMO3      TELAPSE      260.94 TCPU      259.00
 NUMERICALLY INTEGRATED DENSITY    440.0000091381
 TTTTTTTTTTTTTTTTTTTTTTTTTTTTTT NUMDFT      TELAPSE      264.06 TCPU      262.12
 CYC   8 ETOT(AU) -4.968704161551E+03 DETOT -1.46E-04 tst  7.37E-07 PX  3.95E-03
 TTTTTTTTTTTTTTTTTTTTTTTTTTTTTT DIIS        TELAPSE      264.13 TCPU      262.19
 DIIS TEST: 0.55380E-03 AT SCF   CYCLE   8 - DIIS ACTIVE - HISTORY:     8 CYCLES
 TTTTTTTTTTTTTTTTTTTTTTTTTTTTTT FDIK        TELAPSE      266.13 TCPU      264.18
 INSULATING STATE
 TOP OF VALENCE BANDS -    BAND    220; K   44; EIG -2.2962800E-01 AU
 TOP OF VALENCE BANDS -    BAND    220; K    1; EIG -2.3337913E-01 AU
 BOTTOM OF VIRTUAL BANDS - BAND    221; K   65; EIG -4.6396365E-02 AU
 INDIRECT ENERGY BAND GAP:   4.9860 eV
 BOTTOM OF VIRTUAL BANDS - BAND    221; K    1; EIG -3.7452279E-02 AU
 TTTTTTTTTTTTTTTTTTTTTTTTTTTTTT PDIG        TELAPSE      266.64 TCPU      264.68
 CHARGE NORMALIZATION FACTOR   1.00000000
 TOTAL ATOMIC CHARGES:
  10.7625705  10.7625705  10.7202695  10.7202695  23.2068657  23.2068657
  23.1869908  23.1869908  23.1467529  23.1467529  23.1606706  23.1606706
   8.8468176   8.8468176   8.8575806   8.8575806   8.7580346   8.7580346
   8.7730895   8.7730895   8.8331604   8.8331604   8.8476937   8.8476937
   8.7995152   8.7995152   8.8100253   8.8100253   8.8558309   8.8558309
   8.8452229   8.8452229   8.8018211   8.8018211   8.7870882   8.7870882
 TTTTTTTTTTTTTTTTTTTTTTTTTTTTTT MOQGAD      TELAPSE      266.65 TCPU      264.69
 TTTTTTTTTTTTTTTTTTTTTTTTTTTTTT SHELLXN     TELAPSE      287.31 TCPU      285.33
 TTTTTTTTTTTTTTTTTTTTTTTTTTTTTT MONMO3      TELAPSE      287.61 TCPU      285.63
 NUMERICALLY INTEGRATED DENSITY    440.0000091116
 TTTTTTTTTTTTTTTTTTTTTTTTTTTTTT NUMDFT      TELAPSE      290.81 TCPU      288.84
 CYC   9 ETOT(AU) -4.968704209597E+03 DETOT -4.80E-05 tst  1.97E-07 PX  1.70E-03
 TTTTTTTTTTTTTTTTTTTTTTTTTTTTTT DIIS        TELAPSE      290.89 TCPU      288.90
 DIIS TEST: 0.15482E-03 AT SCF   CYCLE   9 - DIIS ACTIVE - HISTORY:     9 CYCLES
 TTTTTTTTTTTTTTTTTTTTTTTTTTTTTT FDIK        TELAPSE      293.02 TCPU      291.01
 INSULATING STATE
 TOP OF VALENCE BANDS -    BAND    220; K   44; EIG -2.2989949E-01 AU
 TOP OF VALENCE BANDS -    BAND    220; K    1; EIG -2.3369794E-01 AU
 BOTTOM OF VIRTUAL BANDS - BAND    221; K   65; EIG -4.6249177E-02 AU
 INDIRECT ENERGY BAND GAP:   4.9974 eV
 BOTTOM OF VIRTUAL BANDS - BAND    221; K    1; EIG -3.7231802E-02 AU
 TTTTTTTTTTTTTTTTTTTTTTTTTTTTTT PDIG        TELAPSE      293.52 TCPU      291.51
 CHARGE NORMALIZATION FACTOR   1.00000000
 TOTAL ATOMIC CHARGES:
  10.7627635  10.7627635  10.7202154  10.7202154  23.2052979  23.2052979
  23.1858913  23.1858913  23.1482831  23.1482831  23.1615604  23.1615604
   8.8475597   8.8475597   8.8563543   8.8563543   8.7592012   8.7592012
   8.7738070   8.7738070   8.8356578   8.8356578   8.8458797   8.8458797
   8.7974195   8.7974195   8.8119530   8.8119530   8.8552097   8.8552097
   8.8436279   8.8436279   8.7989785   8.7989785   8.7903401   8.7903401
 TTTTTTTTTTTTTTTTTTTTTTTTTTTTTT MOQGAD      TELAPSE      293.53 TCPU      291.52
 TTTTTTTTTTTTTTTTTTTTTTTTTTTTTT SHELLXN     TELAPSE      314.14 TCPU      312.10
 TTTTTTTTTTTTTTTTTTTTTTTTTTTTTT MONMO3      TELAPSE      314.44 TCPU      312.39
 NUMERICALLY INTEGRATED DENSITY    440.0000091335
 TTTTTTTTTTTTTTTTTTTTTTTTTTTTTT NUMDFT      TELAPSE      317.51 TCPU      315.46
 CYC  10 ETOT(AU) -4.968704214743E+03 DETOT -5.15E-06 tst  7.43E-08 PX  7.96E-04
 TTTTTTTTTTTTTTTTTTTTTTTTTTTTTT DIIS        TELAPSE      317.58 TCPU      315.52
 DIIS TEST: 0.10874E-03 AT SCF   CYCLE  10 - DIIS ACTIVE - HISTORY:    10 CYCLES
 TTTTTTTTTTTTTTTTTTTTTTTTTTTTTT FDIK        TELAPSE      319.46 TCPU      317.39
 INSULATING STATE
 TOP OF VALENCE BANDS -    BAND    220; K   44; EIG -2.2972747E-01 AU
 TOP OF VALENCE BANDS -    BAND    220; K    1; EIG -2.3350158E-01 AU
 BOTTOM OF VIRTUAL BANDS - BAND    221; K   65; EIG -4.6339524E-02 AU
 INDIRECT ENERGY BAND GAP:   4.9902 eV
 BOTTOM OF VIRTUAL BANDS - BAND    221; K    1; EIG -3.7374871E-02 AU
 TTTTTTTTTTTTTTTTTTTTTTTTTTTTTT PDIG        TELAPSE      319.96 TCPU      317.90
 CHARGE NORMALIZATION FACTOR   1.00000000
 TOTAL ATOMIC CHARGES:
  10.7627198  10.7627198  10.7203708  10.7203708  23.2076254  23.2076254
  23.1863249  23.1863249  23.1465430  23.1465430  23.1605138  23.1605138
   8.8466222   8.8466222   8.8566028   8.8566028   8.7580959   8.7580959
   8.7733218   8.7733218   8.8343599   8.8343599   8.8471006   8.8471006
   8.7985769   8.7985769   8.8112128   8.8112128   8.8559734   8.8559734
   8.8444762   8.8444762   8.8007874   8.8007874   8.7887724   8.7887724
 TTTTTTTTTTTTTTTTTTTTTTTTTTTTTT MOQGAD      TELAPSE      319.97 TCPU      317.91
 TTTTTTTTTTTTTTTTTTTTTTTTTTTTTT SHELLXN     TELAPSE      340.69 TCPU      338.58
 TTTTTTTTTTTTTTTTTTTTTTTTTTTTTT MONMO3      TELAPSE      340.99 TCPU      338.88
 NUMERICALLY INTEGRATED DENSITY    440.0000091212
 TTTTTTTTTTTTTTTTTTTTTTTTTTTTTT NUMDFT      TELAPSE      344.22 TCPU      342.10
 CYC  11 ETOT(AU) -4.968704227091E+03 DETOT -1.23E-05 tst  2.71E-08 PX  5.62E-04
 TTTTTTTTTTTTTTTTTTTTTTTTTTTTTT DIIS        TELAPSE      344.29 TCPU      342.17
 DIIS TEST: 0.19988E-04 AT SCF   CYCLE  11 - DIIS ACTIVE - HISTORY:    11 CYCLES
 TTTTTTTTTTTTTTTTTTTTTTTTTTTTTT FDIK        TELAPSE      346.51 TCPU      344.38
 INSULATING STATE
 TOP OF VALENCE BANDS -    BAND    220; K   44; EIG -2.2972658E-01 AU
 TOP OF VALENCE BANDS -    BAND    220; K    1; EIG -2.3349936E-01 AU
 BOTTOM OF VIRTUAL BANDS - BAND    221; K   65; EIG -4.6333072E-02 AU
 INDIRECT ENERGY BAND GAP:   4.9904 eV
 BOTTOM OF VIRTUAL BANDS - BAND    221; K    1; EIG -3.7365347E-02 AU
 TTTTTTTTTTTTTTTTTTTTTTTTTTTTTT PDIG        TELAPSE      347.01 TCPU      344.88
 CHARGE NORMALIZATION FACTOR   1.00000000
 TOTAL ATOMIC CHARGES:
  10.7626779  10.7626779  10.7202557  10.7202557  23.2060636  23.2060636
  23.1863906  23.1863906  23.1474829  23.1474829  23.1611918  23.1611918
   8.8472798   8.8472798   8.8570204   8.8570204   8.7588945   8.7588945
   8.7734168   8.7734168   8.8347185   8.8347185   8.8465197   8.8465197
   8.7984003   8.7984003   8.8111093   8.8111093   8.8552405   8.8552405
   8.8444731   8.8444731   8.8000927   8.8000927   8.7887719   8.7887719
 TTTTTTTTTTTTTTTTTTTTTTTTTTTTTT MOQGAD      TELAPSE      347.02 TCPU      344.88
 TTTTTTTTTTTTTTTTTTTTTTTTTTTTTT SHELLXN     TELAPSE      367.63 TCPU      365.46
 TTTTTTTTTTTTTTTTTTTTTTTTTTTTTT MONMO3      TELAPSE      367.93 TCPU      365.76
 NUMERICALLY INTEGRATED DENSITY    440.0000091252
 TTTTTTTTTTTTTTTTTTTTTTTTTTTTTT NUMDFT      TELAPSE      371.16 TCPU      368.98
 CYC  12 ETOT(AU) -4.968704227882E+03 DETOT -7.91E-07 tst  5.42E-09 PX  2.71E-04
 TTTTTTTTTTTTTTTTTTTTTTTTTTTTTT DIIS        TELAPSE      371.23 TCPU      369.05
 DIIS TEST: 0.70391E-05 AT SCF   CYCLE  12 - DIIS ACTIVE - HISTORY:    12 CYCLES
 TTTTTTTTTTTTTTTTTTTTTTTTTTTTTT FDIK        TELAPSE      373.01 TCPU      370.83
 INSULATING STATE
 TOP OF VALENCE BANDS -    BAND    220; K   44; EIG -2.2976339E-01 AU
 TOP OF VALENCE BANDS -    BAND    220; K    1; EIG -2.3354104E-01 AU
 BOTTOM OF VIRTUAL BANDS - BAND    221; K   65; EIG -4.6315448E-02 AU
 INDIRECT ENERGY BAND GAP:   4.9919 eV
 BOTTOM OF VIRTUAL BANDS - BAND    221; K    1; EIG -3.7338549E-02 AU
 TTTTTTTTTTTTTTTTTTTTTTTTTTTTTT PDIG        TELAPSE      373.52 TCPU      371.33
 CHARGE NORMALIZATION FACTOR   1.00000000
 TOTAL ATOMIC CHARGES:
  10.7627040  10.7627040  10.7203011  10.7203011  23.2071077  23.2071077
  23.1862247  23.1862247  23.1468895  23.1468895  23.1608299  23.1608299
   8.8469198   8.8469198   8.8565024   8.8565024   8.7581387   8.7581387
   8.7734976   8.7734976   8.8344051   8.8344051   8.8470315   8.8470315
   8.7982303   8.7982303   8.8112964   8.8112964   8.8560991   8.8560991
   8.8441397   8.8441397   8.8005719   8.8005719   8.7891106   8.7891106
 TTTTTTTTTTTTTTTTTTTTTTTTTTTTTT MOQGAD      TELAPSE      373.53 TCPU      371.34
 TTTTTTTTTTTTTTTTTTTTTTTTTTTTTT SHELLXN     TELAPSE      394.24 TCPU      392.04
 TTTTTTTTTTTTTTTTTTTTTTTTTTTTTT MONMO3      TELAPSE      394.54 TCPU      392.34
 NUMERICALLY INTEGRATED DENSITY    440.0000091231
 TTTTTTTTTTTTTTTTTTTTTTTTTTTTTT NUMDFT      TELAPSE      397.74 TCPU      395.53
 CYC  13 ETOT(AU) -4.968704227888E+03 DETOT -6.56E-09 tst  3.92E-09 PX  1.85E-04
 TTTTTTTTTTTTTTTTTTTTTTTTTTTTTT DIIS        TELAPSE      397.82 TCPU      395.60
 DIIS TEST: 0.63636E-05 AT SCF   CYCLE  13 - DIIS ACTIVE - HISTORY:    13 CYCLES
 TTTTTTTTTTTTTTTTTTTTTTTTTTTTTT FDIK        TELAPSE      399.84 TCPU      397.61
 INSULATING STATE
 TOP OF VALENCE BANDS -    BAND    220; K   44; EIG -2.2975981E-01 AU
 TOP OF VALENCE BANDS -    BAND    220; K    1; EIG -2.3353749E-01 AU
 BOTTOM OF VIRTUAL BANDS - BAND    221; K   65; EIG -4.6317928E-02 AU
 INDIRECT ENERGY BAND GAP:   4.9917 eV
 BOTTOM OF VIRTUAL BANDS - BAND    221; K    1; EIG -3.7340501E-02 AU
 TTTTTTTTTTTTTTTTTTTTTTTTTTTTTT PDIG        TELAPSE      400.34 TCPU      398.12
 CHARGE NORMALIZATION FACTOR   1.00000000
 TOTAL ATOMIC CHARGES:
  10.7626902  10.7626902  10.7202958  10.7202958  23.2068251  23.2068251
  23.1863196  23.1863196  23.1470995  23.1470995  23.1608050  23.1608050
   8.8469647   8.8469647   8.8566438   8.8566438   8.7584814   8.7584814
   8.7733521   8.7733521   8.8346550   8.8346550   8.8467991   8.8467991
   8.7985094   8.7985094   8.8112423   8.8112423   8.8555539   8.8555539
   8.8445268   8.8445268   8.8003276   8.8003276   8.7889087   8.7889087
 TTTTTTTTTTTTTTTTTTTTTTTTTTTTTT MOQGAD      TELAPSE      400.35 TCPU      398.12
 TTTTTTTTTTTTTTTTTTTTTTTTTTTTTT SHELLXN     TELAPSE      421.05 TCPU      418.82
 TTTTTTTTTTTTTTTTTTTTTTTTTTTTTT MONMO3      TELAPSE      421.35 TCPU      419.12
 NUMERICALLY INTEGRATED DENSITY    440.0000091233
 TTTTTTTTTTTTTTTTTTTTTTTTTTTTTT NUMDFT      TELAPSE      424.50 TCPU      422.26
 CYC  14 ETOT(AU) -4.968704228679E+03 DETOT -7.91E-07 tst  1.55E-09 PX  9.44E-05
 TTTTTTTTTTTTTTTTTTTTTTTTTTTTTT DIIS        TELAPSE      424.65 TCPU      422.41
 DIIS TEST: 0.12835E-05 AT SCF   CYCLE  14 - DIIS ACTIVE - HISTORY:    14 CYCLES
 TTTTTTTTTTTTTTTTTTTTTTTTTTTTTT FDIK        TELAPSE      426.63 TCPU      424.39
 INSULATING STATE
 TOP OF VALENCE BANDS -    BAND    220; K   44; EIG -2.2973324E-01 AU
 TOP OF VALENCE BANDS -    BAND    220; K    1; EIG -2.3350672E-01 AU
 BOTTOM OF VIRTUAL BANDS - BAND    221; K   65; EIG -4.6326837E-02 AU
 INDIRECT ENERGY BAND GAP:   4.9907 eV
 BOTTOM OF VIRTUAL BANDS - BAND    221; K    1; EIG -3.7357526E-02 AU
 TTTTTTTTTTTTTTTTTTTTTTTTTTTTTT PDIG        TELAPSE      427.13 TCPU      424.88
 CHARGE NORMALIZATION FACTOR   1.00000000
 TOTAL ATOMIC CHARGES:
  10.7626904  10.7626904  10.7202862  10.7202862  23.2066121  23.2066121
  23.1863247  23.1863247  23.1471311  23.1471311  23.1610083  23.1610083
   8.8471362   8.8471362   8.8567958   8.8567958   8.7584732   8.7584732
   8.7735080   8.7735080   8.8344800   8.8344800   8.8467822   8.8467822
   8.7982906   8.7982906   8.8111731   8.8111731   8.8557535   8.8557535
   8.8442558   8.8442558   8.8003778   8.8003778   8.7889210   8.7889210
 TTTTTTTTTTTTTTTTTTTTTTTTTTTTTT MOQGAD      TELAPSE      427.14 TCPU      424.89
 TTTTTTTTTTTTTTTTTTTTTTTTTTTTTT SHELLXN     TELAPSE      447.85 TCPU      445.61
 TTTTTTTTTTTTTTTTTTTTTTTTTTTTTT MONMO3      TELAPSE      448.15 TCPU      445.90
 NUMERICALLY INTEGRATED DENSITY    440.0000091247
 TTTTTTTTTTTTTTTTTTTTTTTTTTTTTT NUMDFT      TELAPSE      451.36 TCPU      449.11
 CYC  15 ETOT(AU) -4.968704228739E+03 DETOT -5.98E-08 tst  4.83E-10 PX  4.53E-05
 TTTTTTTTTTTTTTTTTTTTTTTTTTTTTT DIIS        TELAPSE      451.53 TCPU      449.26
 DIIS TEST: 0.77017E-06 AT SCF   CYCLE  15 - DIIS ACTIVE - HISTORY:    15 CYCLES
 TTTTTTTTTTTTTTTTTTTTTTTTTTTTTT FDIK        TELAPSE      453.22 TCPU      450.95
 INSULATING STATE
 TOP OF VALENCE BANDS -    BAND    220; K   44; EIG -2.2975210E-01 AU
 TOP OF VALENCE BANDS -    BAND    220; K    1; EIG -2.3352873E-01 AU
 BOTTOM OF VIRTUAL BANDS - BAND    221; K   65; EIG -4.6321640E-02 AU
 INDIRECT ENERGY BAND GAP:   4.9914 eV
 BOTTOM OF VIRTUAL BANDS - BAND    221; K    1; EIG -3.7346626E-02 AU
 TTTTTTTTTTTTTTTTTTTTTTTTTTTTTT PDIG        TELAPSE      453.72 TCPU      451.45
 CHARGE NORMALIZATION FACTOR   1.00000000
 TOTAL ATOMIC CHARGES:
  10.7626868  10.7626868  10.7202798  10.7202798  23.2067195  23.2067195
  23.1863103  23.1863103  23.1471492  23.1471492  23.1609087  23.1609087
   8.8470194   8.8470194   8.8566857   8.8566857   8.7585023   8.7585023
   8.7733645   8.7733645   8.8346075   8.8346075   8.8468362   8.8468362
   8.7984216   8.7984216   8.8112174   8.8112174   8.8555978   8.8555978
   8.8444276   8.8444276   8.8003400   8.8003400   8.7889257   8.7889257
 TTTTTTTTTTTTTTTTTTTTTTTTTTTTTT MOQGAD      TELAPSE      453.73 TCPU      451.46
 TTTTTTTTTTTTTTTTTTTTTTTTTTTTTT SHELLXN     TELAPSE      474.44 TCPU      472.17
 TTTTTTTTTTTTTTTTTTTTTTTTTTTTTT MONMO3      TELAPSE      474.74 TCPU      472.47
 NUMERICALLY INTEGRATED DENSITY    440.0000091234
 TTTTTTTTTTTTTTTTTTTTTTTTTTTTTT NUMDFT      TELAPSE      477.94 TCPU      475.66
 CYC  16 ETOT(AU) -4.968704228791E+03 DETOT -5.25E-08 tst  2.59E-10 PX  2.98E-05
 TTTTTTTTTTTTTTTTTTTTTTTTTTTTTT DIIS        TELAPSE      478.07 TCPU      475.78
 DIIS TEST: 0.29235E-06 AT SCF   CYCLE  16 - DIIS ACTIVE - HISTORY:    16 CYCLES
 TTTTTTTTTTTTTTTTTTTTTTTTTTTTTT FDIK        TELAPSE      480.21 TCPU      477.92
 INSULATING STATE
 TOP OF VALENCE BANDS -    BAND    220; K   44; EIG -2.2974854E-01 AU
 TOP OF VALENCE BANDS -    BAND    220; K    1; EIG -2.3352383E-01 AU
 BOTTOM OF VIRTUAL BANDS - BAND    221; K   65; EIG -4.6322259E-02 AU
 INDIRECT ENERGY BAND GAP:   4.9913 eV
 BOTTOM OF VIRTUAL BANDS - BAND    221; K    1; EIG -3.7348922E-02 AU
 TTTTTTTTTTTTTTTTTTTTTTTTTTTTTT PDIG        TELAPSE      480.71 TCPU      478.42
 CHARGE NORMALIZATION FACTOR   1.00000000
 TOTAL ATOMIC CHARGES:
  10.7626884  10.7626884  10.7202902  10.7202902  23.2067274  23.2067274
  23.1863218  23.1863218  23.1471030  23.1471030  23.1609158  23.1609158
   8.8470517   8.8470517   8.8567204   8.8567204   8.7584615   8.7584615
   8.7734662   8.7734662   8.8345692   8.8345692   8.8467522   8.8467522
   8.7984061   8.7984061   8.8112096   8.8112096   8.8556657   8.8556657
   8.8443961   8.8443961   8.8003470   8.8003470   8.7889077   8.7889077
 TTTTTTTTTTTTTTTTTTTTTTTTTTTTTT MOQGAD      TELAPSE      480.72 TCPU      478.43
 TTTTTTTTTTTTTTTTTTTTTTTTTTTTTT SHELLXN     TELAPSE      501.31 TCPU      499.01
 TTTTTTTTTTTTTTTTTTTTTTTTTTTTTT MONMO3      TELAPSE      501.61 TCPU      499.31
 NUMERICALLY INTEGRATED DENSITY    440.0000091240
 TTTTTTTTTTTTTTTTTTTTTTTTTTTTTT NUMDFT      TELAPSE      506.76 TCPU      504.45
 CYC  17 ETOT(AU) -4.968704228806E+03 DETOT -1.43E-08 tst  4.72E-11 PX  2.94E-05
 TTTTTTTTTTTTTTTTTTTTTTTTTTTTTT DIIS        TELAPSE      507.02 TCPU      504.69
 DIIS TEST: 0.57486E-07 AT SCF   CYCLE  17 - DIIS ACTIVE - HISTORY:    17 CYCLES
 TTTTTTTTTTTTTTTTTTTTTTTTTTTTTT FDIK        TELAPSE      508.89 TCPU      506.56
 INSULATING STATE
 TOP OF VALENCE BANDS -    BAND    220; K   44; EIG -2.2974451E-01 AU
 TOP OF VALENCE BANDS -    BAND    220; K    1; EIG -2.3352075E-01 AU
 BOTTOM OF VIRTUAL BANDS - BAND    221; K   65; EIG -4.6322723E-02 AU
 INDIRECT ENERGY BAND GAP:   4.9912 eV
 BOTTOM OF VIRTUAL BANDS - BAND    221; K    1; EIG -3.7349224E-02 AU
 TTTTTTTTTTTTTTTTTTTTTTTTTTTTTT PDIG        TELAPSE      509.40 TCPU      507.06
 CHARGE NORMALIZATION FACTOR   1.00000000
 TOTAL ATOMIC CHARGES:
  10.7626901  10.7626901  10.7202852  10.7202852  23.2066719  23.2066719
  23.1863207  23.1863207  23.1471562  23.1471562  23.1609253  23.1609253
   8.8470566   8.8470566   8.8567245   8.8567245   8.7585136   8.7585136
   8.7733636   8.7733636   8.8345651   8.8345651   8.8468610   8.8468610
   8.7983679   8.7983679   8.8112083   8.8112083   8.8556374   8.8556374
   8.8443591   8.8443591   8.8003578   8.8003578   8.7889358   8.7889358
 TTTTTTTTTTTTTTTTTTTTTTTTTTTTTT MOQGAD      TELAPSE      509.41 TCPU      507.07
 TTTTTTTTTTTTTTTTTTTTTTTTTTTTTT SHELLXN     TELAPSE      530.01 TCPU      527.67
 TTTTTTTTTTTTTTTTTTTTTTTTTTTTTT MONMO3      TELAPSE      530.31 TCPU      527.96
 NUMERICALLY INTEGRATED DENSITY    440.0000091239
 TTTTTTTTTTTTTTTTTTTTTTTTTTTTTT NUMDFT      TELAPSE      533.56 TCPU      531.22
 CYC  18 ETOT(AU) -4.968704228806E+03 DETOT -2.82E-11 tst  5.29E-11 PX  1.94E-05
 TTTTTTTTTTTTTTTTTTTTTTTTTTTTTT DIIS        TELAPSE      533.68 TCPU      531.33
 DIIS TEST: 0.90271E-07 AT SCF   CYCLE  18 - DIIS ACTIVE - HISTORY:    18 CYCLES
 TTTTTTTTTTTTTTTTTTTTTTTTTTTTTT FDIK        TELAPSE      535.58 TCPU      533.22
 INSULATING STATE
 TOP OF VALENCE BANDS -    BAND    220; K   44; EIG -2.2974715E-01 AU
 TOP OF VALENCE BANDS -    BAND    220; K    1; EIG -2.3352271E-01 AU
 BOTTOM OF VIRTUAL BANDS - BAND    221; K   65; EIG -4.6322702E-02 AU
 INDIRECT ENERGY BAND GAP:   4.9912 eV
 BOTTOM OF VIRTUAL BANDS - BAND    221; K    1; EIG -3.7349315E-02 AU
 TTTTTTTTTTTTTTTTTTTTTTTTTTTTTT PDIG        TELAPSE      536.08 TCPU      533.72
 CHARGE NORMALIZATION FACTOR   1.00000000
 TOTAL ATOMIC CHARGES:
  10.7626891  10.7626891  10.7202848  10.7202848  23.2067024  23.2067024
  23.1863121  23.1863121  23.1471346  23.1471346  23.1609262  23.1609262
   8.8470488   8.8470488   8.8567182   8.8567182   8.7584841   8.7584841
   8.7734288   8.7734288   8.8345729   8.8345729   8.8467986   8.8467986
   8.7983897   8.7983897   8.8112036   8.8112036   8.8556483   8.8556483
   8.8443862   8.8443862   8.8003519   8.8003519   8.7889196   8.7889196
 TTTTTTTTTTTTTTTTTTTTTTTTTTTTTT MOQGAD      TELAPSE      536.09 TCPU      533.73
 TTTTTTTTTTTTTTTTTTTTTTTTTTTTTT SHELLXN     TELAPSE      556.62 TCPU      554.24
 +++ ENERGIES IN A.U. +++
 ::: EXT EL-POLE                                  -1.0667354622551E+04
 ::: EXT EL-SPHEROPOLE                             8.9550318421013E+01
 ::: BIELET ZONE E-E                               1.2131884760544E+04
 ::: TOTAL E-E                                     1.5540804564137E+03
 ::: TOTAL E-N + N-E                              -7.9597855218578E+03
 ::: TOTAL N-N                                    -1.7109168932659E+03
 ::: KINETIC ENERGY                                3.4878339434500E+03
 ::: PSEUDO TOTAL   ENERGY                        -4.6287880152600E+03
 ::: VIRIAL COEFFICIENT                            8.5942993555519E-01
 TTTTTTTTTTTTTTTTTTTTTTTTTTTTTT MONMO3      TELAPSE      556.92 TCPU      554.54
 NUMERICALLY INTEGRATED DENSITY    440.0000091239
 EXCHANGE ENERGY: -0.322132767307E+03  CORRELATION ENERGY: -0.177834462514E+02
 TTTTTTTTTTTTTTTTTTTTTTTTTTTTTT NUMDFT      TELAPSE      560.19 TCPU      557.80
 CYC  19 ETOT(AU) -4.968704228819E+03 DETOT -1.28E-08 tst  1.98E-11 PX  1.94E-05

 == SCF ENDED - CONVERGENCE ON ENERGY      E(AU) -4.9687042288185E+03 CYCLES  19


 ENERGY EXPRESSION=HARTREE+FOCK EXCH*0.25000+(PBE        EXCH)*0.75000+PBE        CORR


 TOTAL ENERGY(DFT)(AU)( 19) -4.9687042288185E+03 DE-1.3E-08 tester 2.0E-11
 TTTTTTTTTTTTTTTTTTTTTTTTTTTTTT EDFT        TELAPSE      560.25 TCPU      557.82

 *******************************************************************************
 *                             FORCE CALCULATION                               *
 *******************************************************************************

 TTTTTTTTTTTTTTTTTTTTTTTTTTTTTT NUMDFG      TELAPSE      571.41 TCPU      568.95
 INFORMATION **** EXCPOG **** EXCH. BIPO BUFFER LENGTH (WORDS) =    16000000
 WARNING **** EXCPOG **** EXCH. BIPO BUFFER TOO SMALL - TO AVOID I/O SET EXCHSIZE =     6597720
[...]
-rw-r--r-- 1 fbodo linuxusers         0 Dec 25 10:53 fort.83.pe125
-rw-r--r-- 1 fbodo linuxusers         0 Dec 25 10:53 fort.83.pe126
-rw-r--r-- 1 fbodo linuxusers         0 Dec 25 10:53 fort.83.pe127
-rw-r--r-- 1 fbodo linuxusers         0 Dec 25 10:53 fort.8.pe000
-rw-r--r-- 1 fbodo linuxusers         0 Dec 25 10:53 fort.8.pe001
-rw-r--r-- 1 fbodo linuxusers         0 Dec 25 10:53 fort.8.pe002
-rw-r--r-- 1 fbodo linuxusers         0 Dec 25 10:53 fort.8.pe003
-rw-r--r-- 1 fbodo linuxusers         0 Dec 25 10:53 fort.8.pe004
-rw-r--r-- 1 fbodo linuxusers         0 Dec 25 10:53 fort.8.pe005
-rw-r--r-- 1 fbodo linuxusers         0 Dec 25 10:53 fort.8.pe006
-rw-r--r-- 1 fbodo linuxusers         0 Dec 25 10:53 fort.8.pe007
-rw-r--r-- 1 fbodo linuxusers         0 Dec 25 10:53 fort.8.pe008
-rw-r--r-- 1 fbodo linuxusers         0 Dec 25 10:53 fort.8.pe009
-rw-r--r-- 1 fbodo linuxusers         0 Dec 25 10:53 fort.8.pe010
-rw-r--r-- 1 fbodo linuxusers         0 Dec 25 10:53 fort.8.pe011
-rw-r--r-- 1 fbodo linuxusers         0 Dec 25 10:53 fort.8.pe012
-rw-r--r-- 1 fbodo linuxusers         0 Dec 25 10:53 fort.8.pe013
-rw-r--r-- 1 fbodo linuxusers         0 Dec 25 10:53 fort.8.pe014
-rw-r--r-- 1 fbodo linuxusers         0 Dec 25 10:53 fort.8.pe015
-rw-r--r-- 1 fbodo linuxusers         0 Dec 25 10:53 fort.8.pe016
-rw-r--r-- 1 fbodo linuxusers         0 Dec 25 10:53 fort.8.pe017
-rw-r--r-- 1 fbodo linuxusers         0 Dec 25 10:53 fort.8.pe018
-rw-r--r-- 1 fbodo linuxusers         0 Dec 25 10:53 fort.8.pe019
-rw-r--r-- 1 fbodo linuxusers         0 Dec 25 10:53 fort.8.pe020
-rw-r--r-- 1 fbodo linuxusers         0 Dec 25 10:53 fort.8.pe021
-rw-r--r-- 1 fbodo linuxusers         0 Dec 25 10:53 fort.8.pe022
-rw-r--r-- 1 fbodo linuxusers         0 Dec 25 10:53 fort.8.pe023
-rw-r--r-- 1 fbodo linuxusers         0 Dec 25 10:53 fort.8.pe024
-rw-r--r-- 1 fbodo linuxusers         0 Dec 25 10:53 fort.8.pe025
-rw-r--r-- 1 fbodo linuxusers         0 Dec 25 10:53 fort.8.pe026
-rw-r--r-- 1 fbodo linuxusers         0 Dec 25 10:53 fort.8.pe027
-rw-r--r-- 1 fbodo linuxusers         0 Dec 25 10:53 fort.8.pe028
-rw-r--r-- 1 fbodo linuxusers         0 Dec 25 10:53 fort.8.pe029
-rw-r--r-- 1 fbodo linuxusers         0 Dec 25 10:53 fort.8.pe030
-rw-r--r-- 1 fbodo linuxusers         0 Dec 25 10:53 fort.8.pe031
-rw-r--r-- 1 fbodo linuxusers         0 Dec 25 10:53 fort.8.pe032
-rw-r--r-- 1 fbodo linuxusers         0 Dec 25 10:53 fort.8.pe033
-rw-r--r-- 1 fbodo linuxusers         0 Dec 25 10:53 fort.8.pe034
-rw-r--r-- 1 fbodo linuxusers         0 Dec 25 10:53 fort.8.pe035
-rw-r--r-- 1 fbodo linuxusers   5068936 Dec 25 17:36 fort.8.pe036
-rw-r--r-- 1 fbodo linuxusers  10137864 Dec 25 17:36 fort.8.pe037
-rw-r--r-- 1 fbodo linuxusers  10137864 Dec 25 17:36 fort.8.pe038
-rw-r--r-- 1 fbodo linuxusers   5068936 Dec 25 17:36 fort.8.pe039
-rw-r--r-- 1 fbodo linuxusers   2534472 Dec 25 17:36 fort.8.pe040
-rw-r--r-- 1 fbodo linuxusers   2534472 Dec 25 17:36 fort.8.pe041
-rw-r--r-- 1 fbodo linuxusers  10137864 Dec 25 17:36 fort.8.pe042
-rw-r--r-- 1 fbodo linuxusers  10137864 Dec 25 17:36 fort.8.pe043
-rw-r--r-- 1 fbodo linuxusers   2534472 Dec 25 17:36 fort.8.pe044
-rw-r--r-- 1 fbodo linuxusers   2534472 Dec 25 17:36 fort.8.pe045
-rw-r--r-- 1 fbodo linuxusers   2534472 Dec 25 17:36 fort.8.pe046
-rw-r--r-- 1 fbodo linuxusers   2534472 Dec 25 17:36 fort.8.pe047
-rw-r--r-- 1 fbodo linuxusers  10137864 Dec 25 17:36 fort.8.pe048
-rw-r--r-- 1 fbodo linuxusers  10137864 Dec 25 17:36 fort.8.pe049
-rw-r--r-- 1 fbodo linuxusers   2534472 Dec 25 17:36 fort.8.pe050
-rw-r--r-- 1 fbodo linuxusers   2534472 Dec 25 17:36 fort.8.pe051
-rw-r--r-- 1 fbodo linuxusers   1267240 Dec 25 17:36 fort.8.pe052
-rw-r--r-- 1 fbodo linuxusers   1267240 Dec 25 17:36 fort.8.pe053
-rw-r--r-- 1 fbodo linuxusers  10137864 Dec 25 17:36 fort.8.pe054
-rw-r--r-- 1 fbodo linuxusers  10137864 Dec 25 17:36 fort.8.pe055
-rw-r--r-- 1 fbodo linuxusers   1267240 Dec 25 17:36 fort.8.pe056
-rw-r--r-- 1 fbodo linuxusers   1267240 Dec 25 17:36 fort.8.pe057
-rw-r--r-- 1 fbodo linuxusers  10137864 Dec 25 17:36 fort.8.pe058
-rw-r--r-- 1 fbodo linuxusers  10137864 Dec 25 17:36 fort.8.pe059
-rw-r--r-- 1 fbodo linuxusers  10137864 Dec 25 17:36 fort.8.pe060
-rw-r--r-- 1 fbodo linuxusers  10137864 Dec 25 17:36 fort.8.pe061
-rw-r--r-- 1 fbodo linuxusers  10137864 Dec 25 17:36 fort.8.pe062
-rw-r--r-- 1 fbodo linuxusers  10137864 Dec 25 17:36 fort.8.pe063
-rw-r--r-- 1 fbodo linuxusers  10137864 Dec 25 17:36 fort.8.pe064
-rw-r--r-- 1 fbodo linuxusers  10137864 Dec 25 17:36 fort.8.pe065
-rw-r--r-- 1 fbodo linuxusers  10137864 Dec 25 17:36 fort.8.pe066
-rw-r--r-- 1 fbodo linuxusers  10137864 Dec 25 17:36 fort.8.pe067
-rw-r--r-- 1 fbodo linuxusers  10137864 Dec 25 17:36 fort.8.pe068
-rw-r--r-- 1 fbodo linuxusers  10137864 Dec 25 17:36 fort.8.pe069
-rw-r--r-- 1 fbodo linuxusers  10137864 Dec 25 17:36 fort.8.pe070
-rw-r--r-- 1 fbodo linuxusers  10137864 Dec 25 17:36 fort.8.pe071
-rw-r--r-- 1 fbodo linuxusers  10137864 Dec 25 17:36 fort.8.pe072
-rw-r--r-- 1 fbodo linuxusers  10137864 Dec 25 17:36 fort.8.pe073
-rw-r--r-- 1 fbodo linuxusers  10137864 Dec 25 17:36 fort.8.pe074
-rw-r--r-- 1 fbodo linuxusers  10137864 Dec 25 17:36 fort.8.pe075
-rw-r--r-- 1 fbodo linuxusers  10137864 Dec 25 17:36 fort.8.pe076
-rw-r--r-- 1 fbodo linuxusers  10137864 Dec 25 17:36 fort.8.pe077
-rw-r--r-- 1 fbodo linuxusers  10137864 Dec 25 17:36 fort.8.pe078
-rw-r--r-- 1 fbodo linuxusers  10137864 Dec 25 17:36 fort.8.pe079
-rw-r--r-- 1 fbodo linuxusers  10137864 Dec 25 17:36 fort.8.pe080
-rw-r--r-- 1 fbodo linuxusers  10137864 Dec 25 17:36 fort.8.pe081
-rw-r--r-- 1 fbodo linuxusers  10137864 Dec 25 17:36 fort.8.pe082
-rw-r--r-- 1 fbodo linuxusers  10137864 Dec 25 17:36 fort.8.pe083
-rw-r--r-- 1 fbodo linuxusers  10137864 Dec 25 17:36 fort.8.pe084
-rw-r--r-- 1 fbodo linuxusers  10137864 Dec 25 17:36 fort.8.pe085
-rw-r--r-- 1 fbodo linuxusers  10137864 Dec 25 17:36 fort.8.pe086
-rw-r--r-- 1 fbodo linuxusers  10137864 Dec 25 17:36 fort.8.pe087
-rw-r--r-- 1 fbodo linuxusers  10137864 Dec 25 17:36 fort.8.pe088
-rw-r--r-- 1 fbodo linuxusers  10137864 Dec 25 17:36 fort.8.pe089
-rw-r--r-- 1 fbodo linuxusers  10137864 Dec 25 17:36 fort.8.pe090
-rw-r--r-- 1 fbodo linuxusers  10137864 Dec 25 17:36 fort.8.pe091
-rw-r--r-- 1 fbodo linuxusers  10137864 Dec 25 17:36 fort.8.pe092
-rw-r--r-- 1 fbodo linuxusers  10137864 Dec 25 17:36 fort.8.pe093
-rw-r--r-- 1 fbodo linuxusers  10137864 Dec 25 17:36 fort.8.pe094
-rw-r--r-- 1 fbodo linuxusers  10137864 Dec 25 17:36 fort.8.pe095
-rw-r--r-- 1 fbodo linuxusers  10137864 Dec 25 17:36 fort.8.pe096
-rw-r--r-- 1 fbodo linuxusers  10137864 Dec 25 17:36 fort.8.pe097
-rw-r--r-- 1 fbodo linuxusers  10137864 Dec 25 17:36 fort.8.pe098
-rw-r--r-- 1 fbodo linuxusers  10137864 Dec 25 17:36 fort.8.pe099
-rw-r--r-- 1 fbodo linuxusers  10137864 Dec 25 17:36 fort.8.pe100
-rw-r--r-- 1 fbodo linuxusers  10137864 Dec 25 17:36 fort.8.pe101
-rw-r--r-- 1 fbodo linuxusers  10137864 Dec 25 17:36 fort.8.pe102
-rw-r--r-- 1 fbodo linuxusers  10137864 Dec 25 17:36 fort.8.pe103
-rw-r--r-- 1 fbodo linuxusers  10137864 Dec 25 17:36 fort.8.pe104
-rw-r--r-- 1 fbodo linuxusers  10137864 Dec 25 17:36 fort.8.pe105
-rw-r--r-- 1 fbodo linuxusers   5068936 Dec 25 17:36 fort.8.pe106
-rw-r--r-- 1 fbodo linuxusers  10137864 Dec 25 17:36 fort.8.pe107
-rw-r--r-- 1 fbodo linuxusers  10137864 Dec 25 17:36 fort.8.pe108
-rw-r--r-- 1 fbodo linuxusers   5068936 Dec 25 17:36 fort.8.pe109
-rw-r--r-- 1 fbodo linuxusers   2534472 Dec 25 17:36 fort.8.pe110
-rw-r--r-- 1 fbodo linuxusers   2534472 Dec 25 17:36 fort.8.pe111
-rw-r--r-- 1 fbodo linuxusers  10137864 Dec 25 17:36 fort.8.pe112
-rw-r--r-- 1 fbodo linuxusers  10137864 Dec 25 17:36 fort.8.pe113
-rw-r--r-- 1 fbodo linuxusers   2534472 Dec 25 17:36 fort.8.pe114
-rw-r--r-- 1 fbodo linuxusers   2534472 Dec 25 17:36 fort.8.pe115
-rw-r--r-- 1 fbodo linuxusers   2534472 Dec 25 17:36 fort.8.pe116
-rw-r--r-- 1 fbodo linuxusers   2534472 Dec 25 17:36 fort.8.pe117
-rw-r--r-- 1 fbodo linuxusers  10137864 Dec 25 17:36 fort.8.pe118
-rw-r--r-- 1 fbodo linuxusers  10137864 Dec 25 17:36 fort.8.pe119
-rw-r--r-- 1 fbodo linuxusers   2534472 Dec 25 17:36 fort.8.pe120
-rw-r--r-- 1 fbodo linuxusers   2534472 Dec 25 17:36 fort.8.pe121
-rw-r--r-- 1 fbodo linuxusers   1267240 Dec 25 17:36 fort.8.pe122
-rw-r--r-- 1 fbodo linuxusers   1267240 Dec 25 17:36 fort.8.pe123
-rw-r--r-- 1 fbodo linuxusers  10137864 Dec 25 17:36 fort.8.pe124
-rw-r--r-- 1 fbodo linuxusers  10137864 Dec 25 17:36 fort.8.pe125
-rw-r--r-- 1 fbodo linuxusers   1267240 Dec 25 17:36 fort.8.pe126
-rw-r--r-- 1 fbodo linuxusers   1267240 Dec 25 17:36 fort.8.pe127
-rw-r----- 1 fbodo linuxusers  13120580 Dec 25 17:40 fort.9
-rw-r--r-- 1 fbodo linuxusers   8698416 Dec 25 17:36 fort.95.pe000
-rw-r--r-- 1 fbodo linuxusers   8698416 Dec 25 17:36 fort.95.pe001
-rw-r--r-- 1 fbodo linuxusers   8698416 Dec 25 17:36 fort.95.pe002
-rw-r--r-- 1 fbodo linuxusers   8698416 Dec 25 17:36 fort.95.pe003
-rw-r--r-- 1 fbodo linuxusers   8698416 Dec 25 17:36 fort.95.pe004
-rw-r--r-- 1 fbodo linuxusers   8698416 Dec 25 17:36 fort.95.pe005
-rw-r--r-- 1 fbodo linuxusers   8698416 Dec 25 17:36 fort.95.pe006
-rw-r--r-- 1 fbodo linuxusers   8698416 Dec 25 17:36 fort.95.pe007
-rw-r--r-- 1 fbodo linuxusers   8698416 Dec 25 17:36 fort.95.pe008
-rw-r--r-- 1 fbodo linuxusers   8698416 Dec 25 17:36 fort.95.pe009
-rw-r--r-- 1 fbodo linuxusers   8698416 Dec 25 17:36 fort.95.pe010
-rw-r--r-- 1 fbodo linuxusers   8698416 Dec 25 17:36 fort.95.pe011
-rw-r--r-- 1 fbodo linuxusers   8698416 Dec 25 17:36 fort.95.pe012
-rw-r--r-- 1 fbodo linuxusers   8698416 Dec 25 17:36 fort.95.pe013
-rw-r--r-- 1 fbodo linuxusers   8698416 Dec 25 17:36 fort.95.pe014
-rw-r--r-- 1 fbodo linuxusers   8698416 Dec 25 17:36 fort.95.pe015
-rw-r--r-- 1 fbodo linuxusers   8698416 Dec 25 17:36 fort.95.pe016
-rw-r--r-- 1 fbodo linuxusers   8698416 Dec 25 17:36 fort.95.pe017
-rw-r--r-- 1 fbodo linuxusers   8698416 Dec 25 17:36 fort.95.pe018
-rw-r--r-- 1 fbodo linuxusers   8698416 Dec 25 17:36 fort.95.pe019
-rw-r--r-- 1 fbodo linuxusers   8698416 Dec 25 17:36 fort.95.pe020
-rw-r--r-- 1 fbodo linuxusers   8698416 Dec 25 17:36 fort.95.pe021
-rw-r--r-- 1 fbodo linuxusers   8698416 Dec 25 17:36 fort.95.pe022
-rw-r--r-- 1 fbodo linuxusers   8698416 Dec 25 17:36 fort.95.pe023
-rw-r--r-- 1 fbodo linuxusers   8698416 Dec 25 17:36 fort.95.pe024
-rw-r--r-- 1 fbodo linuxusers   8698416 Dec 25 17:36 fort.95.pe025
-rw-r--r-- 1 fbodo linuxusers   8698416 Dec 25 17:36 fort.95.pe026
-rw-r--r-- 1 fbodo linuxusers   8698416 Dec 25 17:36 fort.95.pe027
-rw-r--r-- 1 fbodo linuxusers   8698416 Dec 25 17:36 fort.95.pe028
-rw-r--r-- 1 fbodo linuxusers   8698416 Dec 25 17:36 fort.95.pe029
-rw-r--r-- 1 fbodo linuxusers   8698416 Dec 25 17:36 fort.95.pe030
-rw-r--r-- 1 fbodo linuxusers   8698416 Dec 25 17:36 fort.95.pe031
-rw-r--r-- 1 fbodo linuxusers   8698416 Dec 25 17:36 fort.95.pe032
-rw-r--r-- 1 fbodo linuxusers   8698416 Dec 25 17:36 fort.95.pe033
-rw-r--r-- 1 fbodo linuxusers   8698416 Dec 25 17:36 fort.95.pe034
-rw-r--r-- 1 fbodo linuxusers   8698416 Dec 25 17:36 fort.95.pe035
-rw-r--r-- 1 fbodo linuxusers   8698416 Dec 25 17:36 fort.95.pe036
-rw-r--r-- 1 fbodo linuxusers   8698416 Dec 25 17:36 fort.95.pe037
-rw-r--r-- 1 fbodo linuxusers   8698416 Dec 25 17:36 fort.95.pe038
-rw-r--r-- 1 fbodo linuxusers   8698416 Dec 25 17:36 fort.95.pe039
-rw-r--r-- 1 fbodo linuxusers   8698416 Dec 25 17:36 fort.95.pe040
-rw-r--r-- 1 fbodo linuxusers   8698416 Dec 25 17:36 fort.95.pe041
-rw-r--r-- 1 fbodo linuxusers   8698416 Dec 25 17:36 fort.95.pe042
-rw-r--r-- 1 fbodo linuxusers   8698416 Dec 25 17:36 fort.95.pe043
-rw-r--r-- 1 fbodo linuxusers   8698416 Dec 25 17:36 fort.95.pe044
-rw-r--r-- 1 fbodo linuxusers   8698416 Dec 25 17:36 fort.95.pe045
-rw-r--r-- 1 fbodo linuxusers   8698416 Dec 25 17:36 fort.95.pe046
-rw-r--r-- 1 fbodo linuxusers   8698416 Dec 25 17:36 fort.95.pe047
-rw-r--r-- 1 fbodo linuxusers   8698416 Dec 25 17:36 fort.95.pe048
-rw-r--r-- 1 fbodo linuxusers   8698416 Dec 25 17:36 fort.95.pe049
-rw-r--r-- 1 fbodo linuxusers   8698416 Dec 25 17:36 fort.95.pe050
-rw-r--r-- 1 fbodo linuxusers   8698416 Dec 25 17:36 fort.95.pe051
-rw-r--r-- 1 fbodo linuxusers   8698416 Dec 25 17:36 fort.95.pe052
-rw-r--r-- 1 fbodo linuxusers   8698416 Dec 25 17:36 fort.95.pe053
-rw-r--r-- 1 fbodo linuxusers   8698416 Dec 25 17:36 fort.95.pe054
-rw-r--r-- 1 fbodo linuxusers   8698416 Dec 25 17:36 fort.95.pe055
-rw-r--r-- 1 fbodo linuxusers   8698416 Dec 25 17:36 fort.95.pe056
-rw-r--r-- 1 fbodo linuxusers   8698416 Dec 25 17:36 fort.95.pe057
-rw-r--r-- 1 fbodo linuxusers   8698416 Dec 25 17:36 fort.95.pe058
-rw-r--r-- 1 fbodo linuxusers   8698416 Dec 25 17:36 fort.95.pe059
-rw-r--r-- 1 fbodo linuxusers   8698416 Dec 25 17:36 fort.95.pe060
-rw-r--r-- 1 fbodo linuxusers   8698416 Dec 25 17:36 fort.95.pe061
-rw-r--r-- 1 fbodo linuxusers   8698416 Dec 25 17:36 fort.95.pe062
-rw-r--r-- 1 fbodo linuxusers   8698416 Dec 25 17:36 fort.95.pe063
-rw-r--r-- 1 fbodo linuxusers   8698416 Dec 25 17:36 fort.95.pe064
-rw-r--r-- 1 fbodo linuxusers   8698416 Dec 25 17:36 fort.95.pe065
-rw-r--r-- 1 fbodo linuxusers   8698416 Dec 25 17:36 fort.95.pe066
-rw-r--r-- 1 fbodo linuxusers   8698416 Dec 25 17:36 fort.95.pe067
-rw-r--r-- 1 fbodo linuxusers   8698416 Dec 25 17:36 fort.95.pe068
-rw-r--r-- 1 fbodo linuxusers   8698416 Dec 25 17:36 fort.95.pe069
-rw-r--r-- 1 fbodo linuxusers   8698416 Dec 25 17:36 fort.95.pe070
-rw-r--r-- 1 fbodo linuxusers   8698416 Dec 25 17:36 fort.95.pe071
-rw-r--r-- 1 fbodo linuxusers   8698416 Dec 25 17:36 fort.95.pe072
-rw-r--r-- 1 fbodo linuxusers   8698416 Dec 25 17:36 fort.95.pe073
-rw-r--r-- 1 fbodo linuxusers   8698416 Dec 25 17:36 fort.95.pe074
-rw-r--r-- 1 fbodo linuxusers   8698416 Dec 25 17:36 fort.95.pe075
-rw-r--r-- 1 fbodo linuxusers   8698416 Dec 25 17:36 fort.95.pe076
-rw-r--r-- 1 fbodo linuxusers   8698416 Dec 25 17:36 fort.95.pe077
-rw-r--r-- 1 fbodo linuxusers   8698416 Dec 25 17:36 fort.95.pe078
-rw-r--r-- 1 fbodo linuxusers   8698416 Dec 25 17:36 fort.95.pe079
-rw-r--r-- 1 fbodo linuxusers   8698416 Dec 25 17:36 fort.95.pe080
-rw-r--r-- 1 fbodo linuxusers   8698416 Dec 25 17:36 fort.95.pe081
-rw-r--r-- 1 fbodo linuxusers   8698416 Dec 25 17:36 fort.95.pe082
-rw-r--r-- 1 fbodo linuxusers   8698416 Dec 25 17:36 fort.95.pe083
-rw-r--r-- 1 fbodo linuxusers   8698416 Dec 25 17:36 fort.95.pe084
-rw-r--r-- 1 fbodo linuxusers   8698416 Dec 25 17:36 fort.95.pe085
-rw-r--r-- 1 fbodo linuxusers   8698416 Dec 25 17:36 fort.95.pe086
-rw-r--r-- 1 fbodo linuxusers   8698416 Dec 25 17:36 fort.95.pe087
-rw-r--r-- 1 fbodo linuxusers   8698416 Dec 25 17:36 fort.95.pe088
-rw-r--r-- 1 fbodo linuxusers   8698416 Dec 25 17:36 fort.95.pe089
-rw-r--r-- 1 fbodo linuxusers   8698416 Dec 25 17:36 fort.95.pe090
-rw-r--r-- 1 fbodo linuxusers   8698416 Dec 25 17:36 fort.95.pe091
-rw-r--r-- 1 fbodo linuxusers   8698416 Dec 25 17:36 fort.95.pe092
-rw-r--r-- 1 fbodo linuxusers   8698416 Dec 25 17:36 fort.95.pe093
-rw-r--r-- 1 fbodo linuxusers   8698416 Dec 25 17:36 fort.95.pe094
-rw-r--r-- 1 fbodo linuxusers   8698416 Dec 25 17:36 fort.95.pe095
-rw-r--r-- 1 fbodo linuxusers   8698416 Dec 25 17:36 fort.95.pe096
-rw-r--r-- 1 fbodo linuxusers   8698416 Dec 25 17:36 fort.95.pe097
-rw-r--r-- 1 fbodo linuxusers   8698416 Dec 25 17:36 fort.95.pe098
-rw-r--r-- 1 fbodo linuxusers   8698416 Dec 25 17:36 fort.95.pe099
-rw-r--r-- 1 fbodo linuxusers   8698416 Dec 25 17:36 fort.95.pe100
-rw-r--r-- 1 fbodo linuxusers   8698416 Dec 25 17:36 fort.95.pe101
-rw-r--r-- 1 fbodo linuxusers   8698416 Dec 25 17:36 fort.95.pe102
-rw-r--r-- 1 fbodo linuxusers   8698416 Dec 25 17:36 fort.95.pe103
-rw-r--r-- 1 fbodo linuxusers   8698416 Dec 25 17:36 fort.95.pe104
-rw-r--r-- 1 fbodo linuxusers   8698416 Dec 25 17:36 fort.95.pe105
-rw-r--r-- 1 fbodo linuxusers   8698416 Dec 25 17:36 fort.95.pe106
-rw-r--r-- 1 fbodo linuxusers   8698416 Dec 25 17:36 fort.95.pe107
-rw-r--r-- 1 fbodo linuxusers   8698416 Dec 25 17:36 fort.95.pe108
-rw-r--r-- 1 fbodo linuxusers   8698416 Dec 25 17:36 fort.95.pe109
-rw-r--r-- 1 fbodo linuxusers   8698416 Dec 25 17:36 fort.95.pe110
-rw-r--r-- 1 fbodo linuxusers   8698416 Dec 25 17:36 fort.95.pe111
-rw-r--r-- 1 fbodo linuxusers   8698416 Dec 25 17:36 fort.95.pe112
-rw-r--r-- 1 fbodo linuxusers   8698416 Dec 25 17:36 fort.95.pe113
-rw-r--r-- 1 fbodo linuxusers   8698416 Dec 25 17:36 fort.95.pe114
-rw-r--r-- 1 fbodo linuxusers   8698416 Dec 25 17:36 fort.95.pe115
-rw-r--r-- 1 fbodo linuxusers   8698416 Dec 25 17:36 fort.95.pe116
-rw-r--r-- 1 fbodo linuxusers   8698416 Dec 25 17:36 fort.95.pe117
-rw-r--r-- 1 fbodo linuxusers   8698416 Dec 25 17:36 fort.95.pe118
-rw-r--r-- 1 fbodo linuxusers   8698416 Dec 25 17:36 fort.95.pe119
-rw-r--r-- 1 fbodo linuxusers   8698416 Dec 25 17:36 fort.95.pe120
-rw-r--r-- 1 fbodo linuxusers   8698416 Dec 25 17:36 fort.95.pe121
-rw-r--r-- 1 fbodo linuxusers   8698416 Dec 25 17:36 fort.95.pe122
-rw-r--r-- 1 fbodo linuxusers   8698416 Dec 25 17:36 fort.95.pe123
-rw-r--r-- 1 fbodo linuxusers   8698416 Dec 25 17:36 fort.95.pe124
-rw-r--r-- 1 fbodo linuxusers   8698416 Dec 25 17:36 fort.95.pe125
-rw-r--r-- 1 fbodo linuxusers   8698416 Dec 25 17:36 fort.95.pe126
-rw-r--r-- 1 fbodo linuxusers   8698416 Dec 25 17:36 fort.95.pe127
-rw-r--r-- 1 fbodo linuxusers  34492772 Dec 25 17:40 fort.98
-rw-r--r-- 1 fbodo linuxusers     69042 Dec 25 17:40 HESSOPT.DAT
-rw-r----- 1 fbodo linuxusers       909 Dec 25 10:53 INPUT
-rw-r--r-- 1 fbodo linuxusers      3122 Dec 25 11:05 optc001
-rw-r--r-- 1 fbodo linuxusers      3122 Dec 25 11:17 optc002
-rw-r--r-- 1 fbodo linuxusers      3122 Dec 25 11:29 optc003
-rw-r--r-- 1 fbodo linuxusers      3122 Dec 25 11:52 optc005
-rw-r--r-- 1 fbodo linuxusers      3122 Dec 25 12:07 optc006
-rw-r--r-- 1 fbodo linuxusers      3122 Dec 25 12:27 optc008
-rw-r--r-- 1 fbodo linuxusers      3122 Dec 25 12:40 optc009
-rw-r--r-- 1 fbodo linuxusers      3122 Dec 25 12:53 optc010
-rw-r--r-- 1 fbodo linuxusers      3122 Dec 25 13:06 optc011
-rw-r--r-- 1 fbodo linuxusers      3122 Dec 25 13:29 optc013
-rw-r--r-- 1 fbodo linuxusers      3122 Dec 25 13:39 optc014
-rw-r--r-- 1 fbodo linuxusers      3122 Dec 25 13:50 optc015
-rw-r--r-- 1 fbodo linuxusers      3122 Dec 25 14:02 optc016
-rw-r--r-- 1 fbodo linuxusers      3122 Dec 25 14:25 optc018
-rw-r--r-- 1 fbodo linuxusers      3122 Dec 25 14:37 optc019
-rw-r--r-- 1 fbodo linuxusers      3122 Dec 25 14:45 optc020
-rw-r--r-- 1 fbodo linuxusers      3122 Dec 25 14:55 optc021
-rw-r--r-- 1 fbodo linuxusers      3122 Dec 25 15:04 optc022
-rw-r--r-- 1 fbodo linuxusers      3122 Dec 25 15:16 optc023
-rw-r--r-- 1 fbodo linuxusers      3122 Dec 25 15:26 optc024
-rw-r--r-- 1 fbodo linuxusers      3122 Dec 25 15:44 optc026
-rw-r--r-- 1 fbodo linuxusers      3122 Dec 25 15:55 optc027
-rw-r--r-- 1 fbodo linuxusers      3122 Dec 25 16:05 optc028
-rw-r--r-- 1 fbodo linuxusers      3122 Dec 25 16:15 optc029
-rw-r--r-- 1 fbodo linuxusers      3122 Dec 25 16:24 optc030
-rw-r--r-- 1 fbodo linuxusers      3122 Dec 25 16:35 optc031
-rw-r--r-- 1 fbodo linuxusers      3122 Dec 25 16:52 optc033
-rw-r--r-- 1 fbodo linuxusers      3122 Dec 25 17:01 optc034
-rw-r--r-- 1 fbodo linuxusers      3122 Dec 25 17:10 optc035
-rw-r--r-- 1 fbodo linuxusers      3122 Dec 25 17:20 optc036
-rw-r--r-- 1 fbodo linuxusers      3122 Dec 25 17:40 optc038
-rw-r----- 1 fbodo linuxusers  84805726 Dec 25 17:40 OPTINFO.DAT
-rwxr-xr-x 1 fbodo linuxusers 112779232 Dec 25 10:53 Pcrystal
lrwxrwxrwx 1 fbodo linuxusers        79 Dec 25 10:53 SCFOUT.LOG -> /users/fbodo/Application/fbodo/Fili/Mg(IO3)2/P21/MgIO32_p21_OPT_exp_pbe0d3.out2
================================================================================
Copying output file back on run directory...
================================================================================
Removing temporary directory /lustre/scratch/client/users/fbodo/prova/tmp_p1285492 from each node...
Job terminated
