nproc:128
Pcrystal executable in: /users/fbodo/SVN_PUB_NEW/bin/Linux-gfortran_new/std/Pcrystal
Master system: Linux c141 5.15.0-47-generic #51-Ubuntu SMP Thu Aug 11 07:51:15 UTC 2022 x86_64 x86_64 x86_64 GNU/Linux
ls -ltr $BINDIR
total 420340
-rwxr-xr-x 1 fbodo linuxusers 101580248 Oct 28 17:33 properties
-rwxr-xr-x 1 fbodo linuxusers 101643032 Oct 28 17:33 Pproperties
-rwxr-xr-x 1 fbodo linuxusers 112779232 Oct 28 17:33 Pcrystal
-rwxr-xr-x 1 fbodo linuxusers 112716416 Oct 28 17:33 crystal
================================================================================
Module loading in /lustre/scratch/client/users/fbodo/prova/tmp_p3227072
================================================================================
Loading gcc and openmpi modules ...
1) # module load gcc/11.2.0
2) # module load openmpi/4.1.6-a4ksrza
================================================================================
Starting Pcrystal SLURM job
================================================================================
Time: Sun Dec 29 10:28:57 AM CST 2024
SLURM job ID: 17006486
Master hostname: c141
User: fbodo
Input file: MgIO32_p21_OPT_exp_pbe0d3_10GPa.d12
Output file: MgIO32_p21_OPT_exp_pbe0d3_10GPa.out
Number of processors: 128
Nodes list: c141
================================================================================
Creating temporary directory /lustre/scratch/client/users/fbodo/prova/tmp_p3227072 on each node...
Copying input file MgIO32_p21_OPT_exp_pbe0d3_10GPa.d12 on each node...
Copying Pcrystal on each node...
================================================================================
Contents of input file
================================================================================
Mg(IO3)2 P21
CRYSTAL
0 0 0
4
11.06330959     3.77954690    11.06929529  120.032203
18
12    -4.974433346529E-01  4.411440003784E-01  2.512339519672E-01
12    -2.586287855202E-03 -5.882699222095E-02  2.488138477060E-01
53     1.662407055883E-01  4.188919236506E-01  8.658727450687E-02
53     3.337411437532E-01 -8.112557946468E-02  4.133951098430E-01
53    -1.669379387001E-01 -8.090741288394E-02  4.203500365127E-01
53    -3.330728996542E-01  4.191269812733E-01  7.965090252247E-02
 8     3.206136281340E-01 -3.002889784977E-01  1.188060140460E-01
 8     4.853617925743E-02 -2.960250670184E-01 -6.742386625368E-02
 8     1.380863012705E-01 -2.843391929241E-01  2.056052442974E-01
 8     3.619240184679E-01  2.155868433179E-01  2.943837258362E-01
 8     1.793882393565E-01  1.997771150084E-01  3.811588796646E-01
 8     4.514558351385E-01  2.039800687989E-01 -4.325871056439E-01
 8    -3.143245903971E-01  2.114800908141E-01  3.950981067208E-01
 8    -4.004100868034E-02  2.045977452145E-01 -4.315158008607E-01
 8    -1.381249191117E-01  1.939413658952E-01  2.951417344128E-01
 8    -3.618646730326E-01 -3.060420983396E-01  2.048747247241E-01
 8    -1.856600273252E-01 -2.885778354869E-01  1.048879901179E-01
 8    -4.599655519873E-01 -2.953929775148E-01 -6.848362388383E-02
OPTGEOM
EXTPRESS
0.0003398932735
END
BASISSET
POB-TZVP-REV2
DFT
PBE0-D3
HUGEGRID
END
TOLINTEG
9 9 9 9 27
TOLDEE
9
SHRINK
6 6
END
================================================================================
Time: Sun Dec 29 10:28:58 AM CST 2024
Starting Pcrystal job in /lustre/scratch/client/users/fbodo/prova/tmp_p3227072 on each node...
================================================================================

command /hpc/m3/spack/opt/spack/linux-ubuntu22.04-zen3/gcc-11.2.0/openmpi-4.1.6-a4ksrzarq4qdqcx545m6o47ytlwsgqyk/bin/mpirun -np 128 Pcrystal < /lustre/scratch/client/users/fbodo/prova/tmp_p3227072/INPUT
/hpc/m3/spack/opt/spack/linux-ubuntu22.04-zen3/gcc-11.2.0/openmpi-4.1.6-a4ksrzarq4qdqcx545m6o47ytlwsgqyk/bin/mpirun
         128 PROCESSORS WORKING

         
 *******************************************************************************
 *                                                                             *
 *                               CRYSTAL23                                     *
 *                      public : 1.0.1 - October 2022                          *
 *                       HTTP://WWW.CRYSTAL.UNITO.IT                           *
 *                                                                             *
 *                              MAIN AUTHORS                                   *
 *                                                                             *
 *  R. DOVESI(1,11), V.R. SAUNDERS(2), C. ROETTI(1,11), R. ORLANDO(1,11),      *
 *  C.M. ZICOVICH-WILSON(1,3), F. PASCALE(4), B. CIVALLERI(1,11),              *
 *  K. DOLL(5), N.M. HARRISON(6), I.J. BUSH(7), Ph. D'ARCO(8),                 *
 *  M. LLUNELL(9), M. CAUSA'(10), Y. NOEL(8), L. MASCHIO(1,11), A. ERBA(1,11)  *
 *  M. RE'RAT(14), S. CASASSA(1,11), B.G. SEARLE(2), J.K. DESMARAIS(1)         *
 *                                                                             *
 *        CONTRIBUTIONS TO THE CODE HAVE ALSO BEEN GIVEN BY                    *
 *                                                                             *
 *  M. FERRABONE(1,11), M. DE LA PIERRE(1,11), M. FERRERO(1,11),               *
 *  J. BAIMA(1,11), E. ALBANESE(1,11), M.F. PEINTINGER(12), R. BAST(13),       *
 *  B. KIRTMAN(15), V. LACIVITA(1,11), R. DEMICHELIS(1,16)                     *
 *  G. BRANDEBURG(17), S. SALUSTRO(1,11), G. SANSONE(1,11)                     *
 *  M.T. RUGGIERO(18), L.E. DAGA(1), L. DONA'(1), A. COSSARD(1)                *
 *                                                                             *
 * (1) THEORETICAL CHEMISTRY GROUP - UNIVERSITA' DI TORINO - TORINO (ITALY)    *
 * (2) SCIENTIFIC COMPUTING DEPARTMENT - STFC DARESBURY (UK)                   *
 * (3) UNIVERSIDAD AUTONOMA DEL ESTADO DE MORELOS - CUERNAVACA (MEXICO)        *
 * (4) UNIVERSITE' DE LORRAINE - NANCY (FRANCE)                                *
 * (5) UNIVERSITAET STUTTGART- STUTTGART (GERMANY)                             *
 * (6) IMPERIAL COLLEGE - LONDON (UK)                                          *
 * (7) SCIENTIFIC COMPUTING DEPARTMENT - STFC RAL (UK)                         *
 * (8) UPMC - SORBONNE UNIVERSITES - PARIS (FRANCE)                            *
 * (9) UNIVERSIDAD DE BARCELONA - BARCELONA (SPAIN)                            *
 *(10) UNIVERSITA' DI NAPOLI "FEDERICO II" - NAPOLI (ITALY)                    *
 *(11) NIS - NANOSTRUCTURED INTERFACES AND SURFACES - TORINO (ITALY)           *
 *(12) MPI FUER CHEMISCHE ENERGIEKONVERSION - MUELHEIM AN DER RUHR (GERMANY)   *
 *(13) UNIVERSITY OF TROMSO - TROMSO (NORWAY)                                  *
 *(14) UNIVERSITE' DE PAU ET DES PAYS DE L'ADOUR - PAU (FRANCE)                *
 *(15) UNIVERSITY OF CALIFORNIA SANTA BARBARA - SANTA BARBARA (USA)            *
 *(16) CURTIN UNIVERSITY - PERTH (AUSTRALIA)                                   *
 *(17) UNIVERSITY COLLEGE LONDON - LONDON (UK)                                 *
 *(18) UNIVERSITY OF VERMONT - BURLINGTON (USA)                                *
 *                                                                             *
 *******************************************************************************
 EEEEEEEEEE STARTING  DATE 29 12 2024 TIME 10:29:01.6
 Mg(IO3)2 P21                                                                    

 CRYSTAL CALCULATION
 (INPUT ACCORDING TO THE INTERNATIONAL TABLES FOR X-RAY CRYSTALLOGRAPHY)
 CRYSTAL FAMILY                       :  MONOCLINIC  
 CRYSTAL CLASS  (GROTH - 1921)        :  MONOCLINIC SPHENOIDAL                

 SPACE GROUP (NONCENTROSYMMETRIC)     :  P 21            

 LATTICE PARAMETERS  (ANGSTROMS AND DEGREES) - CONVENTIONAL CELL
        A           B           C        ALPHA        BETA       GAMMA
    11.06331     3.77955    11.06930    90.00000   120.03220    90.00000


 NUMBER OF IRREDUCIBLE ATOMS IN THE CONVENTIONAL CELL:   18

 INPUT COORDINATES

 ATOM AT. N.              COORDINATES
   1  12    -4.974433346529E-01  4.411440003784E-01  2.512339519672E-01
   2  12    -2.586287855202E-03 -5.882699222095E-02  2.488138477060E-01
   3  53     1.662407055883E-01  4.188919236506E-01  8.658727450687E-02
   4  53     3.337411437532E-01 -8.112557946468E-02  4.133951098430E-01
   5  53    -1.669379387001E-01 -8.090741288394E-02  4.203500365127E-01
   6  53    -3.330728996542E-01  4.191269812733E-01  7.965090252247E-02
   7   8     3.206136281340E-01 -3.002889784977E-01  1.188060140460E-01
   8   8     4.853617925743E-02 -2.960250670184E-01 -6.742386625368E-02
   9   8     1.380863012705E-01 -2.843391929241E-01  2.056052442974E-01
  10   8     3.619240184679E-01  2.155868433179E-01  2.943837258362E-01
  11   8     1.793882393565E-01  1.997771150084E-01  3.811588796646E-01
  12   8     4.514558351385E-01  2.039800687989E-01 -4.325871056439E-01
  13   8    -3.143245903971E-01  2.114800908141E-01  3.950981067208E-01
  14   8    -4.004100868034E-02  2.045977452145E-01 -4.315158008607E-01
  15   8    -1.381249191117E-01  1.939413658952E-01  2.951417344128E-01
  16   8    -3.618646730326E-01 -3.060420983396E-01  2.048747247241E-01
  17   8    -1.856600273252E-01 -2.885778354869E-01  1.048879901179E-01
  18   8    -4.599655519873E-01 -2.953929775148E-01 -6.848362388383E-02

 *******************************************************************************

 << INFORMATION >>: FROM NOW ON, ALL COORDINATES REFER TO THE PRIMITIVE CELL

 *******************************************************************************

 LATTICE PARAMETERS  (ANGSTROMS AND DEGREES) - PRIMITIVE CELL
       A          B          C        ALPHA      BETA     GAMMA        VOLUME
   11.06331    3.77955   11.06930    90.00000 120.03220  90.00000    400.713884

 COORDINATES OF THE EQUIVALENT ATOMS (FRACTIONAL UNITS)

 N. ATOM EQUIV AT. N.          X                  Y                  Z

   1   1   1   12 MG   -4.97443334653E-01  4.41144000378E-01  2.51233951967E-01
   2   1   2   12 MG    4.97443334653E-01 -5.88559996216E-02 -2.51233951967E-01

   3   2   1   12 MG   -2.58628785520E-03 -5.88269922210E-02  2.48813847706E-01
   4   2   2   12 MG    2.58628785520E-03  4.41173007779E-01 -2.48813847706E-01

   5   3   1   53 I     1.66240705588E-01  4.18891923651E-01  8.65872745069E-02
   6   3   2   53 I    -1.66240705588E-01 -8.11080763494E-02 -8.65872745069E-02

   7   4   1   53 I     3.33741143753E-01 -8.11255794647E-02  4.13395109843E-01
   8   4   2   53 I    -3.33741143753E-01  4.18874420535E-01 -4.13395109843E-01

   9   5   1   53 I    -1.66937938700E-01 -8.09074128839E-02  4.20350036513E-01
  10   5   2   53 I     1.66937938700E-01  4.19092587116E-01 -4.20350036513E-01

  11   6   1   53 I    -3.33072899654E-01  4.19126981273E-01  7.96509025225E-02
  12   6   2   53 I     3.33072899654E-01 -8.08730187267E-02 -7.96509025225E-02

  13   7   1    8 O     3.20613628134E-01 -3.00288978498E-01  1.18806014046E-01
  14   7   2    8 O    -3.20613628134E-01  1.99711021502E-01 -1.18806014046E-01

  15   8   1    8 O     4.85361792574E-02 -2.96025067018E-01 -6.74238662537E-02
  16   8   2    8 O    -4.85361792574E-02  2.03974932982E-01  6.74238662537E-02

  17   9   1    8 O     1.38086301271E-01 -2.84339192924E-01  2.05605244297E-01
  18   9   2    8 O    -1.38086301271E-01  2.15660807076E-01 -2.05605244297E-01

  19  10   1    8 O     3.61924018468E-01  2.15586843318E-01  2.94383725836E-01
  20  10   2    8 O    -3.61924018468E-01 -2.84413156682E-01 -2.94383725836E-01

  21  11   1    8 O     1.79388239357E-01  1.99777115008E-01  3.81158879665E-01
  22  11   2    8 O    -1.79388239357E-01 -3.00222884992E-01 -3.81158879665E-01

  23  12   1    8 O     4.51455835139E-01  2.03980068799E-01 -4.32587105644E-01
  24  12   2    8 O    -4.51455835139E-01 -2.96019931201E-01  4.32587105644E-01

  25  13   1    8 O    -3.14324590397E-01  2.11480090814E-01  3.95098106721E-01
  26  13   2    8 O     3.14324590397E-01 -2.88519909186E-01 -3.95098106721E-01

  27  14   1    8 O    -4.00410086803E-02  2.04597745214E-01 -4.31515800861E-01
  28  14   2    8 O     4.00410086803E-02 -2.95402254785E-01  4.31515800861E-01

  29  15   1    8 O    -1.38124919112E-01  1.93941365895E-01  2.95141734413E-01
  30  15   2    8 O     1.38124919112E-01 -3.06058634105E-01 -2.95141734413E-01

  31  16   1    8 O    -3.61864673033E-01 -3.06042098340E-01  2.04874724724E-01
  32  16   2    8 O     3.61864673033E-01  1.93957901660E-01 -2.04874724724E-01

  33  17   1    8 O    -1.85660027325E-01 -2.88577835487E-01  1.04887990118E-01
  34  17   2    8 O     1.85660027325E-01  2.11422164513E-01 -1.04887990118E-01

  35  18   1    8 O    -4.59965551987E-01 -2.95392977515E-01 -6.84836238838E-02
  36  18   2    8 O     4.59965551987E-01  2.04607022485E-01  6.84836238838E-02

 NUMBER OF SYMMETRY OPERATORS         :    2
 *******************************************************************************
 * GEOMETRY EDITING - INPUT COORDINATES ARE GIVEN IN ANGSTROM         
 *******************************************************************************

 GEOMETRY NOW FULLY CONSISTENT WITH THE GROUP
 INFORMATION **** NEW DEFAULT **** FINALRUN 4 FOR GEOMETRY OPTIMIZATIONS
 INFORMATION **** NEW DEFAULT **** OPTGEOM OPTIMIZES BOTH ATOMIC COORDINATES AND CELL PARAMETERS
 INFORMATION **** NEW DEFAULT **** TOL. ON ATOMIC DISP TO REDEFINE REF. GEOMETRY: 0.8 Angs
 INFORMATION **** NEW DEFAULT **** N POINTS TO REDEFINE REF. GEOMETRY: N OF OPT DEGS OF FREEDOM
 INFORMATION **** NEW DEFAULT **** TOL. ON ENERGY TO REDEFINE REF. GEOMETRY: 10**-3*(5*N. ATOMS)

 EXTERNAL STRESS APPLIED (HARTREE/BOHR^3):
 (1 HARTREE/BOHR^3 = 29421 GIGAPASCAL)
 EXTERNAL STRESS
 ORDER:   11   12    13 
          21   22    23 
          31   32    33 
  0.3398933E-03  0.0000000E+00  0.0000000E+00
  0.0000000E+00  0.3398933E-03  0.0000000E+00
  0.0000000E+00  0.0000000E+00  0.3398933E-03


 IMPORTANT INFORMATION:
 THE COORDINATE SYSTEM ADOPTED IN THE OPTIMIZATION IS NOT IN
 GENERAL HOMOGENEOUS UNITS. FOR THIS REASON THE GRADIENT AND 
 HESSIAN MATRIX IN TERMS OF THIS SYSTEM ARE GIVEN WITHOUT
 UNITS. FOR MORE DETAILS SEE THE MANUAL.

 *******************************************************************************
 COMBINED CELL/ATOM OPTIMIZATION CONTROL

 MAXIMUM GRADIENT COMPONENT   0.00045 MAXIMUM DISPLACEMENT COMPONENT     0.00180
 R.M.S. OF GRADIENT COMPONENT 0.00030 R.M.S. OF DISPLACEMENT COMPONENTS  0.00120
 THRESHOLD ON ENERGY CHANGE 0.100E-06 EXTRAPOLATING POLYNOMIAL ORDER           2
 MAXIMUM ALLOWED NUMBER OF STEPS   -1 SORTING OF ENERGY POINTS:               NO
 ANALYTICAL  GRADIENT                 HESSIAN UPDATING                      BFGS
 STEP SIZE NUMERICAL GRADIENT 0.00100
 INITIAL HESSIAN MATRIX: SCHLEGEL MODEL 2
 *******************************************************************************


 GCALCO - MAX INDICES DIRECT LATTICE VECTOR    11    27    10
 NO.OF VECTORS CREATED 6999 STARS 1818 RMAX   165.71221 BOHR

 GEOMETRY FOR WAVE FUNCTION - DIMENSIONALITY OF THE SYSTEM    3
 (NON PERIODIC DIRECTION: LATTICE PARAMETER FORMALLY SET TO 500)
 *******************************************************************************
 LATTICE PARAMETERS (ANGSTROMS AND DEGREES) - BOHR = 0.5291772083 ANGSTROM
 PRIMITIVE CELL - CENTRING CODE 1/0 VOLUME=   400.713884 - DENSITY  6.195 g/cm^3
         A              B              C           ALPHA      BETA       GAMMA 
    11.06330959     3.77954690    11.06929529    90.000000 120.032203  90.000000
 *******************************************************************************
 ATOMS IN THE ASYMMETRIC UNIT   18 - ATOMS IN THE UNIT CELL:   36
     ATOM                 X/A                 Y/B                 Z/C    
 *******************************************************************************
      1 T  12 MG   -4.974433346529E-01  4.411440003784E-01  2.512339519672E-01
      2 F  12 MG    4.974433346529E-01 -5.885599962160E-02 -2.512339519672E-01
      3 T  12 MG   -2.586287855202E-03 -5.882699222095E-02  2.488138477060E-01
      4 F  12 MG    2.586287855202E-03  4.411730077790E-01 -2.488138477060E-01
      5 T  53 I     1.662407055883E-01  4.188919236506E-01  8.658727450687E-02
      6 F  53 I    -1.662407055883E-01 -8.110807634940E-02 -8.658727450687E-02
      7 T  53 I     3.337411437532E-01 -8.112557946468E-02  4.133951098430E-01
      8 F  53 I    -3.337411437532E-01  4.188744205353E-01 -4.133951098430E-01
      9 T  53 I    -1.669379387001E-01 -8.090741288394E-02  4.203500365127E-01
     10 F  53 I     1.669379387001E-01  4.190925871161E-01 -4.203500365127E-01
     11 T  53 I    -3.330728996542E-01  4.191269812733E-01  7.965090252247E-02
     12 F  53 I     3.330728996542E-01 -8.087301872670E-02 -7.965090252247E-02
     13 T   8 O     3.206136281340E-01 -3.002889784977E-01  1.188060140460E-01
     14 F   8 O    -3.206136281340E-01  1.997110215023E-01 -1.188060140460E-01
     15 T   8 O     4.853617925743E-02 -2.960250670184E-01 -6.742386625368E-02
     16 F   8 O    -4.853617925743E-02  2.039749329816E-01  6.742386625368E-02
     17 T   8 O     1.380863012705E-01 -2.843391929241E-01  2.056052442974E-01
     18 F   8 O    -1.380863012705E-01  2.156608070759E-01 -2.056052442974E-01
     19 T   8 O     3.619240184679E-01  2.155868433179E-01  2.943837258362E-01
     20 F   8 O    -3.619240184679E-01 -2.844131566821E-01 -2.943837258362E-01
     21 T   8 O     1.793882393565E-01  1.997771150084E-01  3.811588796646E-01
     22 F   8 O    -1.793882393565E-01 -3.002228849916E-01 -3.811588796646E-01
     23 T   8 O     4.514558351385E-01  2.039800687989E-01 -4.325871056439E-01
     24 F   8 O    -4.514558351385E-01 -2.960199312011E-01  4.325871056439E-01
     25 T   8 O    -3.143245903971E-01  2.114800908141E-01  3.950981067208E-01
     26 F   8 O     3.143245903971E-01 -2.885199091859E-01 -3.950981067208E-01
     27 T   8 O    -4.004100868034E-02  2.045977452145E-01 -4.315158008607E-01
     28 F   8 O     4.004100868034E-02 -2.954022547855E-01  4.315158008607E-01
     29 T   8 O    -1.381249191117E-01  1.939413658952E-01  2.951417344128E-01
     30 F   8 O     1.381249191117E-01 -3.060586341048E-01 -2.951417344128E-01
     31 T   8 O    -3.618646730326E-01 -3.060420983396E-01  2.048747247241E-01
     32 F   8 O     3.618646730326E-01  1.939579016604E-01 -2.048747247241E-01
     33 T   8 O    -1.856600273252E-01 -2.885778354869E-01  1.048879901179E-01
     34 F   8 O     1.856600273252E-01  2.114221645131E-01 -1.048879901179E-01
     35 T   8 O    -4.599655519873E-01 -2.953929775148E-01 -6.848362388383E-02
     36 F   8 O     4.599655519873E-01  2.046070224852E-01  6.848362388383E-02

 T = ATOM BELONGING TO THE ASYMMETRIC UNIT

 ****    2 SYMMOPS - TRANSLATORS IN FRACTIONAL UNITS
 **** MATRICES AND TRANSLATORS IN THE CRYSTALLOGRAPHIC REFERENCE FRAME
   V INV                    ROTATION MATRICES                   TRANSLATORS
   1   1  1.00  0.00  0.00  0.00  1.00  0.00  0.00  0.00  1.00  0.00  0.00  0.00
   2   2 -1.00  0.00 -0.00 -0.00  1.00  0.00  0.00  0.00 -1.00  0.00  0.50  0.00

 DIRECT LATTICE VECTORS CARTESIAN COMPONENTS (ANGSTROM)
          X                    Y                    Z
   0.110633095900E+02   0.677432333868E-15   0.000000000000E+00
   0.000000000000E+00   0.377954690000E+01   0.000000000000E+00
  -0.554003472980E+01   0.677798852286E-15   0.958317866941E+01


 CARTESIAN COORDINATES - PRIMITIVE CELL
 *******************************************************************************
 *      ATOM          X(ANGSTROM)         Y(ANGSTROM)         Z(ANGSTROM)
 *******************************************************************************
    1    12 MG    4.168095156050E+00  1.667324439084E+00  2.407619849524E+00
    2    12 MG   -4.168095156050E+00 -2.224490109162E-01 -2.407619849524E+00
    3    12 MG   -1.407050260777E+00 -2.223393760850E-01  2.384427557990E+00
    4    12 MG    1.407050260777E+00  1.667434073915E+00 -2.384427557990E+00
    5    53 I     1.359475884457E+00  1.583221671469E+00  8.297813220967E-01
    6    53 I    -1.359475884457E+00 -3.065517785313E-01 -8.297813220967E-01
    7    53 I     1.402058330604E+00 -3.066179323764E-01  3.961639198686E+00
    8    53 I    -1.402058330604E+00  1.583155517624E+00 -3.961639198686E+00
    9    53 I     1.364394830690E+00 -3.057933615525E-01 -5.554889165816E+00
   10    53 I    -1.364394830690E+00  1.583980088447E+00  5.554889165816E+00
   11    53 I    -4.126157371148E+00  1.584110082778E+00  7.633088300527E-01
   12    53 I     4.126157371148E+00 -3.056633672221E-01 -7.633088300527E-01
   13     8 O     2.888858382896E+00 -1.134956277785E+00  1.138539259603E+00
   14     8 O    -2.888858382896E+00  7.548171722149E-01 -1.138539259603E+00
   15     8 O     9.105013381033E-01 -1.118840624372E+00 -6.461349568915E-01
   16     8 O    -9.105013381033E-01  7.709328256283E-01  6.461349568915E-01
   17     8 O     3.886313070575E-01 -1.074673315165E+00  1.970351791470E+00
   18     8 O    -3.886313070575E-01  8.151001348352E-01 -1.970351791470E+00
   19     8 O     2.373181399348E+00  8.148205853430E-01  2.821131842055E+00
   20     8 O    -2.373181399348E+00 -1.074952864657E+00 -2.821131842055E+00
   21     8 O    -1.270058021066E-01  7.550669757209E-01  3.652713645258E+00
   22     8 O     1.270058021066E-01 -1.134706474279E+00 -3.652713645258E+00
   23     8 O    -3.672166330721E+00  7.709522366907E-01 -4.145559523469E+00
   24     8 O     3.672166330721E+00 -1.118821213309E+00  4.145559523469E+00
   25     8 O    -1.262927584261E-01  7.992989216481E-01 -5.796882920760E+00
   26     8 O     1.262927584261E-01 -1.090474528352E+00  5.796882920760E+00
   27     8 O     1.947626447898E+00  7.732867736725E-01 -4.135293018322E+00
   28     8 O    -1.947626447898E+00 -1.116486676328E+00  4.135293018322E+00
   29     8 O    -3.163214201086E+00  7.330104882510E-01  2.828395973678E+00
   30     8 O     3.163214201086E+00 -1.156762961749E+00 -2.828395973678E+00
   31     8 O    -5.138433997673E+00 -1.156700464049E+00  1.963351091877E+00
   32     8 O     5.138433997673E+00  7.330729859511E-01 -1.963351091877E+00
   33     8 O    -2.635097468778E+00 -1.090693463523E+00  1.005160349575E+00
   34     8 O     2.635097468778E+00  7.990799864768E-01 -1.005160349575E+00
   35     8 O    -4.709339647632E+00 -1.116451612448E+00 -6.562908036075E-01
   36     8 O     4.709339647632E+00  7.733218375522E-01  6.562908036075E-01

 *******************************************************************************
 STARTING BASIS SET HANDLING 
 *******************************************************************************

 Loading internal basis set: POB-TZVP-REV2       

 Please cite in your publication:
 D. Vilela Oliveira, M. F. Peintinger, J. Laun, and T. Bredow, J. Comput. Chem., 40 (2019)                                                                                                                                                                       
 J. Laun, and T. Bredow, J. Comput. Chem., 42 (2021)                                                                                                                                                                                                             
 J. Laun, and T. Bredow, J. Comput. Chem., 43 (2022)                                                                                                                                                                                                             

 *******************************************************************************
 *** PSEUDOPOTENTIAL INFORMATION ***
 *******************************************************************************

 ATOMIC NUMBER  53, NUCLEAR CHARGE 25.000,                      PSEUDOPOTENTIAL
   TYPE       EXPONENT      COEFF.    N      EXPONENT      COEFF.    N
  P0 TMS    40.0333760   49.9896490   0    17.3005760  281.0065560   0
             8.8517200   61.4167390   0
  P1 TMS    15.7201410   67.4162390   0    15.2082220  134.8076960   0
             8.2941860   14.5665480   0     7.7539490   28.9684220   0
  P2 TMS    13.8177510   35.5387560   0    13.5878050   53.3397590   0
             6.9476300    9.7164660   0     6.9600990   14.9775000   0
  P3 TMS    18.5229500  -20.1766180   0    18.2510350  -26.0880770   0
             7.5579010   -0.2204340   0     7.5974040   -0.2216460   0

 *******************************************************************************
 LOCAL ATOMIC FUNCTIONS BASIS SET
 *******************************************************************************
   ATOM   X(AU)   Y(AU)   Z(AU)  N. TYPE  EXPONENT  S COEF   P COEF   D/F/G COEF
 *******************************************************************************
   1 MG   7.877   3.151   4.550
                                  1 S  
                                         3.144E+04 6.091E-04 0.000E+00 0.000E+00
                                         4.716E+03 4.707E-03 0.000E+00 0.000E+00
                                         1.073E+03 2.414E-02 0.000E+00 0.000E+00
                                         3.036E+02 9.363E-02 0.000E+00 0.000E+00
                                         9.863E+01 2.665E-01 0.000E+00 0.000E+00
                                         3.494E+01 4.789E-01 0.000E+00 0.000E+00
                                         1.286E+01 3.370E-01 0.000E+00 0.000E+00
                                  2 S  
                                         6.488E+01 1.918E-02 0.000E+00 0.000E+00
                                         1.973E+01 9.091E-02 0.000E+00 0.000E+00
                                         2.895E+00-3.956E-01 0.000E+00 0.000E+00
                                  3 S  
                                         1.196E+00 1.683E+00 0.000E+00 0.000E+00
                                         5.433E-01 5.214E-01 0.000E+00 0.000E+00
                                  4 S  
                                         8.347E-01 1.000E+00 0.000E+00 0.000E+00
                                  5 S  
                                         1.451E-01 1.000E+00 0.000E+00 0.000E+00
                           6-     8 P  
                                         1.799E+02 0.000E+00 5.380E-03 0.000E+00
                                         4.212E+01 0.000E+00 3.932E-02 0.000E+00
                                         1.312E+01 0.000E+00 1.574E-01 0.000E+00
                                         4.626E+00 0.000E+00 3.592E-01 0.000E+00
                                         1.670E+00 0.000E+00 4.553E-01 0.000E+00
                           9-    11 P  
                                         5.663E-01 0.000E+00 1.000E+00 0.000E+00
                          12-    14 P  
                                         1.881E-01 0.000E+00 1.000E+00 0.000E+00
                          15-    19 D  
                                         2.936E-01 0.000E+00 0.000E+00 1.000E+00
   2 MG  -7.877  -0.420  -4.550
   3 MG  -2.659  -0.420   4.506
   4 MG   2.659   3.151  -4.506
   5 I    2.569   2.992   1.568
                                 77 S  
                                         5.900E+03 2.419E-04 0.000E+00 0.000E+00
                                         8.985E+02 1.547E-03 0.000E+00 0.000E+00
                                         2.004E+02 4.284E-03 0.000E+00 0.000E+00
                                         3.142E+01-3.942E-02 0.000E+00 0.000E+00
                                         1.565E+01 9.609E-01 0.000E+00 0.000E+00
                                 78 S  
                                         1.182E+01 7.596E-01 0.000E+00 0.000E+00
                                         6.461E+00 4.250E-01 0.000E+00 0.000E+00
                                 79 S  
                                         2.221E+00 7.013E-01 0.000E+00 0.000E+00
                                         1.042E+00 2.987E-01 0.000E+00 0.000E+00
                                 80 S  
                                         2.321E-01 1.000E+00 0.000E+00 0.000E+00
                          81-    83 P  
                                         1.973E+02 0.000E+00 7.395E-04 0.000E+00
                                         2.006E+01 0.000E+00 6.617E-02 0.000E+00
                                         9.763E+00 0.000E+00-2.855E-01 0.000E+00
                          84-    86 P  
                                         1.298E+01 0.000E+00-4.910E-02 0.000E+00
                                         3.620E+00 0.000E+00 3.891E-01 0.000E+00
                                         2.023E+00 0.000E+00 6.561E-01 0.000E+00
                                         1.037E+00 0.000E+00 3.180E-01 0.000E+00
                          87-    89 P  
                                         3.996E-01 0.000E+00 1.000E+00 0.000E+00
                          90-    92 P  
                                         1.222E-01 0.000E+00 1.000E+00 0.000E+00
                          93-    97 D  
                                         1.191E+02 0.000E+00 0.000E+00 8.260E-04
                                         3.340E+01 0.000E+00 0.000E+00 6.838E-03
                                         1.781E+01 0.000E+00 0.000E+00-1.031E-02
                                         4.899E+00 0.000E+00 0.000E+00 2.267E-01
                                         2.452E+00 0.000E+00 0.000E+00 4.418E-01
                                         1.182E+00 0.000E+00 0.000E+00 3.678E-01
                          98-   102 D  
                                         1.004E+00 0.000E+00 0.000E+00 1.000E+00
                         103-   107 D  
                                         5.278E-01 0.000E+00 0.000E+00 1.000E+00
                         108-   112 D  
                                         2.010E-01 0.000E+00 0.000E+00 1.000E+00
   6 I   -2.569  -0.579  -1.568
   7 I    2.650  -0.579   7.486
   8 I   -2.650   2.992  -7.486
   9 I    2.578  -0.578 -10.497
  10 I   -2.578   2.993  10.497
  11 I   -7.797   2.994   1.442
  12 I    7.797  -0.578  -1.442
  13 O    5.459  -2.145   2.152
                                365 S  
                                         2.703E+04 2.173E-04 0.000E+00 0.000E+00
                                         4.052E+03 1.684E-03 0.000E+00 0.000E+00
                                         9.223E+02 8.740E-03 0.000E+00 0.000E+00
                                         2.612E+02 3.524E-02 0.000E+00 0.000E+00
                                         8.535E+01 1.115E-01 0.000E+00 0.000E+00
                                         3.104E+01 2.559E-01 0.000E+00 0.000E+00
                                366 S  
                                         1.226E+01 3.977E-01 0.000E+00 0.000E+00
                                         4.999E+00 2.463E-01 0.000E+00 0.000E+00
                                367 S  
                                         1.099E+00 1.000E+00 0.000E+00 0.000E+00
                                368 S  
                                         3.566E-01 1.000E+00 0.000E+00 0.000E+00
                         369-   371 P  
                                         6.327E+01 0.000E+00 6.069E-03 0.000E+00
                                         1.463E+01 0.000E+00 4.191E-02 0.000E+00
                                         4.450E+00 0.000E+00 1.615E-01 0.000E+00
                                         1.528E+00 0.000E+00 3.571E-01 0.000E+00
                         372-   374 P  
                                         5.490E-01 0.000E+00 1.000E+00 0.000E+00
                         375-   377 P  
                                         1.859E-01 0.000E+00 1.000E+00 0.000E+00
                         378-   382 D  
                                         4.535E-01 0.000E+00 0.000E+00 1.000E+00
  14 O   -5.459   1.426  -2.152
  15 O    1.721  -2.114  -1.221
  16 O   -1.721   1.457   1.221
  17 O    0.734  -2.031   3.723
  18 O   -0.734   1.540  -3.723
  19 O    4.485   1.540   5.331
  20 O   -4.485  -2.031  -5.331
  21 O   -0.240   1.427   6.903
  22 O    0.240  -2.144  -6.903
  23 O   -6.939   1.457  -7.834
  24 O    6.939  -2.114   7.834
  25 O   -0.239   1.510 -10.955
  26 O    0.239  -2.061  10.955
  27 O    3.680   1.461  -7.815
  28 O   -3.680  -2.110   7.815
  29 O   -5.978   1.385   5.345
  30 O    5.978  -2.186  -5.345
  31 O   -9.710  -2.186   3.710
  32 O    9.710   1.385  -3.710
  33 O   -4.980  -2.061   1.899
  34 O    4.980   1.510  -1.899
  35 O   -8.899  -2.110  -1.240
  36 O    8.899   1.461   1.240

 *******************************************************************************
 FINISHED BASIS SET HANDLING 
 *******************************************************************************

 INFORMATION **** SET_MPP **** PCRYSTAL CALCULATION
 INFORMATION **** READM2 **** NEW DEFAULT: FOCK/KS MATRIX MIXING SET TO 30 %
 INFORMATION **** READM2 **** NEW DEFAULT: FULL DIRECT SCF MODE
 INFORMATION **** READM2 **** NEW DEFAULT: COULOMB BIPOLAR BUFFER SET TO 32 Mb
 INFORMATION **** READM2 **** NEW DEFAULT: EXCHANGE BIPOLAR BUFFER SET TO 32 Mb

 *******************************************************************************
 NEW DEFAULT: DFT INTEGRATION GRID INCREASED TO XLGRID
 NEW DEFAULT: DIIS ACCELERATOR ACTIVE
 USE KEYWORD NODIIS TO TURN IT OFF
 *******************************************************************************

 INFORMATION **** DFTD3_INPUT **** PERFORM LATEST DISPERSION CORRECTION DFT-D3(BJ) WITH AUTOMATIC PARAMETER SETUP
 PLEASE CITE:
 (1) DFT-D3 Reference
  S. Grimme, J. Antony, S. Ehrlich, and H. Krieg, J. Chem. Phys. 132 (2010), 154104
 (2) BJ-Damping Reference
  S. Grimme, S. Ehrlich, and L. Goerigk, J. Comput. Chem. 32 (2011), 1456-1465
 (3) General DFT-D Review
  S. Grimme, A. Hansen, J. G. Brandenburg, and C. Bannwarth,
  Chem. Rev. 116 (2016), 5105-5154

 INFORMATION **** TOLINTEG **** COULOMB AND EXCHANGE SERIES TOLERANCES MODIFIED
 INFORMATION **** TOLDEE **** SCF TOL ON TOTAL ENERGY SET TO           9
 *******************************************************************************
 N. OF ATOMS PER CELL        36  COULOMB OVERLAP TOL         (T1) 10**   -9
 NUMBER OF SHELLS           324  COULOMB PENETRATION TOL     (T2) 10**   -9
 NUMBER OF AO               796  EXCHANGE OVERLAP TOL        (T3) 10**   -9
 N. OF ELECTRONS PER CELL   440  EXCHANGE PSEUDO OVP (F(G))  (T4) 10**   -9
 CORE ELECTRONS PER CELL     88  EXCHANGE PSEUDO OVP (P(G))  (T5) 10**  -27
 N. OF SYMMETRY OPERATORS     2  POLE ORDER IN MONO ZONE                  4
 *******************************************************************************
 TYPE OF CALCULATION :  RESTRICTED CLOSED SHELL
 KOHN-SHAM HAMILTONIAN

 (EXCHANGE)[CORRELATION] FUNCTIONAL:(PERDEW-BURKE-ERNZERHOF)[PERDEW-BURKE-ERNZERHOF]


 HYBRID EXCHANGE - PERCENTAGE OF FOCK EXCHANGE    25.0000
 CORE  PSEUDO POTENTIAL         TOL. ON PSEUDO              (TP) 10**- 6

 CAPPA:IS1  6;IS2  6;IS3  6; K PTS MONK NET  80; SYMMOPS:K SPACE   4;G SPACE   2

 *******************************************************************************
 MAX NUMBER OF SCF CYCLES      50  CONVERGENCE ON DELTAP        10**-19
 WEIGHT OF F(I) IN F(I+1)      30% CONVERGENCE ON ENERGY        10**- 9
 SHRINK. FACT.(MONKH.)    6  6  6  NUMBER OF K POINTS IN THE IBZ     80
 SHRINKING FACTOR(GILAT NET)    6  NUMBER OF K POINTS(GILAT NET)     80
 *******************************************************************************
 *** K POINTS COORDINATES (OBLIQUE COORDINATES IN UNITS OF IS =  6)
   1-R(  0  0  0)   2-C(  1  0  0)   3-C(  2  0  0)   4-R(  3  0  0)
   5-C(  0  1  0)   6-C(  1  1  0)   7-C(  2  1  0)   8-C(  3  1  0)
   9-C(  0  2  0)  10-C(  1  2  0)  11-C(  2  2  0)  12-C(  3  2  0)
  13-R(  0  3  0)  14-C(  1  3  0)  15-C(  2  3  0)  16-R(  3  3  0)
  17-C(  0  0  1)  18-C(  1  0  1)  19-C(  2  0  1)  20-C(  3  0  1)
  21-C(  4  0  1)  22-C(  5  0  1)  23-C(  0  1  1)  24-C(  1  1  1)
  25-C(  2  1  1)  26-C(  3  1  1)  27-C(  4  1  1)  28-C(  5  1  1)
  29-C(  0  2  1)  30-C(  1  2  1)  31-C(  2  2  1)  32-C(  3  2  1)
  33-C(  4  2  1)  34-C(  5  2  1)  35-C(  0  3  1)  36-C(  1  3  1)
  37-C(  2  3  1)  38-C(  3  3  1)  39-C(  4  3  1)  40-C(  5  3  1)
  41-C(  0  0  2)  42-C(  1  0  2)  43-C(  2  0  2)  44-C(  3  0  2)
  45-C(  4  0  2)  46-C(  5  0  2)  47-C(  0  1  2)  48-C(  1  1  2)
  49-C(  2  1  2)  50-C(  3  1  2)  51-C(  4  1  2)  52-C(  5  1  2)
  53-C(  0  2  2)  54-C(  1  2  2)  55-C(  2  2  2)  56-C(  3  2  2)
  57-C(  4  2  2)  58-C(  5  2  2)  59-C(  0  3  2)  60-C(  1  3  2)
  61-C(  2  3  2)  62-C(  3  3  2)  63-C(  4  3  2)  64-C(  5  3  2)
  65-R(  0  0  3)  66-C(  1  0  3)  67-C(  2  0  3)  68-R(  3  0  3)
  69-C(  0  1  3)  70-C(  1  1  3)  71-C(  2  1  3)  72-C(  3  1  3)
  73-C(  0  2  3)  74-C(  1  2  3)  75-C(  2  2  3)  76-C(  3  2  3)
  77-R(  0  3  3)  78-C(  1  3  3)  79-C(  2  3  3)  80-R(  3  3  3)

 DIRECT LATTICE VECTORS COMPON. (A.U.)     RECIP. LATTICE VECTORS COMPON. (A.U.) 
        X            Y            Z              X            Y            Z
   20.9066253    0.0000000    0.0000000      0.3005356   -0.0000000    0.1737396
    0.0000000    7.1423086    0.0000000     -0.0000000    0.8797135   -0.0000000
  -10.4691484    0.0000000   18.1095832      0.0000000    0.0000000    0.3469536

 DISK SPACE FOR EIGENVECTORS (FTN 10)    96309632 REALS

 SYMMETRY ADAPTION OF THE BLOCH FUNCTIONS ENABLED
 TTTTTTTTTTTTTTTTTTTTTTTTTTTTTT gordsh1     TELAPSE        3.58 TCPU        1.99

 MATRIX SIZE: P(G) 5237820, F(G)  491400, P(G) IRR 1322624, F(G) IRR  248222
 MAX G-VECTOR INDEX FOR 1- AND 2-ELECTRON INTEGRALS 173

 TTTTTTTTTTTTTTTTTTTTTTTTTTTTTT INPUT       TELAPSE        3.61 TCPU        2.02

 NEIGHBORS OF THE NON-EQUIVALENT ATOMS

 N = NUMBER OF NEIGHBORS AT DISTANCE R
    ATOM  N     R/ANG      R/AU   NEIGHBORS (ATOM LABELS AND CELL INDICES)
   1 MG   1     2.0296     3.8355   19 O    0 0 0
   1 MG   1     2.0394     3.8540   36 O    0 0 0
   1 MG   1     2.0407     3.8563   25 O    1 0 1
   1 MG   1     2.0486     3.8713   31 O    1 1 0
   1 MG   1     2.0499     3.8737   13 O    0 1 0
   1 MG   1     2.0623     3.8972   24 O    0 1 0

   3 MG   1     2.0304     3.8368   17 O    0 0 0
   3 MG   1     2.0389     3.8530   28 O    0 0 0
   3 MG   1     2.0407     3.8564   33 O    0 0 0
   3 MG   1     2.0479     3.8700   29 O    0 0 0
   3 MG   1     2.0500     3.8739   21 O    0 0 0
   3 MG   1     2.0627     3.8980   16 O    0 0 0

   5 I    1     1.8712     3.5361   17 O    0 1 0
   5 I    1     1.8817     3.5559   15 O    0 1 0
   5 I    1     1.8870     3.5660   13 O    0 1 0
   5 I    1     2.3629     4.4653   19 O    0 0 0
   5 I    1     2.3684     4.4755   34 O    0 0 0
   5 I    1     2.4179     4.5692   16 O    0 0 0

   7 I    1     1.8712     3.5361   19 O    0 0 0
   7 I    1     1.8818     3.5562   23 O    1 0 1
   7 I    1     1.8870     3.5659   21 O    0 0 0
   7 I    1     2.3627     4.4648   17 O    0 0 0
   7 I    1     2.3686     4.4760   26 O    0 0 0
   7 I    1     2.4180     4.5694   24 O    0 0 0

   9 I    1     1.8713     3.5363   25 O    0 0 0
   9 I    1     1.8761     3.5454   27 O    0 0 0
   9 I    1     1.8825     3.5574   29 O    0 0-1
   9 I    1     2.3733     4.4850   28 O    0 0-1
   9 I    1     2.4159     4.5654   22 O    0 0 0
   9 I    1     2.4321     4.5960   31 O    0 0-1

  11 I    1     1.8714     3.5365   33 O    0 1 0
  11 I    1     1.8761     3.5452   35 O    0 1 0
  11 I    1     1.8825     3.5574   31 O    0 1 0
  11 I    1     2.3732     4.4847   36 O   -1 0 0
  11 I    1     2.4157     4.5650   14 O    0 0 0
  11 I    1     2.4323     4.5964   29 O    0 0 0

  13 O    1     1.8870     3.5660    5 I    0-1 0
  13 O    1     2.0499     3.8737    1 MG   0-1 0
  13 O    1     2.4157     4.5650   12 I    0 0 0
  13 O    1     2.5387     4.7975   19 O    0-1 0
  13 O    1     2.6265     4.9634   19 O    0 0 0
  13 O    1     2.6357     4.9807   17 O    0 0 0

  15 O    1     1.8817     3.5559    5 I    0-1 0
  15 O    1     2.0627     3.8980    4 MG   0-1 0
  15 O    1     2.4179     4.5692    6 I    0 0 0
  15 O    1     2.5630     4.8433   34 O    0-1 0
  15 O    1     2.6041     4.9211   34 O    0 0 0
  15 O    1     2.6168     4.9450   18 O    0-1 0

  17 O    1     1.8712     3.5361    5 I    0-1 0
  17 O    1     2.0304     3.8368    3 MG   0 0 0
  17 O    1     2.3627     4.4648    7 I    0 0 0
  17 O    1     2.5385     4.7971   21 O    0 0 0
  17 O    1     2.6168     4.9450   16 O    0 0 0
  17 O    1     2.6264     4.9632   21 O    0-1 0

  19 O    1     1.8712     3.5361    7 I    0 0 0
  19 O    1     2.0296     3.8355    1 MG   0 0 0
  19 O    1     2.3629     4.4653    5 I    0 0 0
  19 O    1     2.5387     4.7975   13 O    0 1 0
  19 O    1     2.6170     4.9455   24 O    0 1 0
  19 O    1     2.6265     4.9634   13 O    0 0 0

  21 O    1     1.8870     3.5659    7 I    0 0 0
  21 O    1     2.0500     3.8739    3 MG   0 0 0
  21 O    1     2.4159     4.5654   10 I    0 0 0
  21 O    1     2.5385     4.7971   17 O    0 0 0
  21 O    1     2.6264     4.9632   17 O    0 1 0
  21 O    1     2.6355     4.9804   19 O    0 0 0

  23 O    1     1.8818     3.5562    7 I   -1 0-1
  23 O    1     2.0623     3.8972    2 MG   0 0 0
  23 O    1     2.4180     4.5694    8 I    0 0 0
  23 O    1     2.5630     4.8434   26 O   -1 0-1
  23 O    1     2.6045     4.9217   26 O   -1 1-1
  23 O    1     2.6170     4.9455   20 O    0 0 0

  25 O    1     1.8713     3.5363    9 I    0 0 0
  25 O    1     2.0407     3.8563    1 MG  -1 0-1
  25 O    1     2.3686     4.4760    8 I    0 0 0
  25 O    1     2.5630     4.8434   24 O   -1 1-1
  25 O    1     2.6045     4.9217   24 O   -1 0-1
  25 O    1     2.6319     4.9737   31 O    0 1-1

  27 O    1     1.8761     3.5454    9 I    0 0 0
  27 O    1     2.0389     3.8530    4 MG   0 0 0
  27 O    1     2.3733     4.4850   10 I    0 0-1
  27 O    1     2.5703     4.8571   30 O    0 1 0
  27 O    1     2.6288     4.9678   30 O    0 0 0
  27 O    1     2.6547     5.0167   29 O    0 0-1

  29 O    1     1.8825     3.5574    9 I    0 0 1
  29 O    1     2.0479     3.8700    3 MG   0 0 0
  29 O    1     2.4323     4.5964   11 I    0 0 0
  29 O    1     2.5703     4.8571   28 O    0 0 0
  29 O    1     2.6288     4.9678   28 O    0 1 0
  29 O    1     2.6323     4.9743   33 O    0 0 0

  31 O    1     1.8825     3.5574   11 I    0-1 0
  31 O    1     2.0486     3.8713    1 MG  -1-1 0
  31 O    1     2.4321     4.5960    9 I    0 0 1
  31 O    1     2.5703     4.8572   36 O   -1-1 0
  31 O    1     2.6289     4.9678   36 O   -1 0 0
  31 O    1     2.6319     4.9737   25 O    0-1 1

  33 O    1     1.8714     3.5365   11 I    0-1 0
  33 O    1     2.0407     3.8564    3 MG   0 0 0
  33 O    1     2.3684     4.4755    6 I    0 0 0
  33 O    1     2.5630     4.8433   16 O    0 0 0
  33 O    1     2.6041     4.9211   16 O    0-1 0
  33 O    1     2.6323     4.9743   29 O    0 0 0

  35 O    1     1.8761     3.5452   11 I    0-1 0
  35 O    1     2.0394     3.8540    2 MG   0 0 0
  35 O    1     2.3732     4.4847   12 I   -1 0 0
  35 O    1     2.5703     4.8572   32 O   -1 0 0
  35 O    1     2.6289     4.9678   32 O   -1-1 0
  35 O    1     2.6549     5.0170   31 O    0 0 0


 SYMMETRY ALLOWED ELASTIC DISTORTION 1
  0.5773503  0.0000000  0.0000000
  0.0000000  0.5773503  0.0000000
  0.0000000  0.0000000  0.5773503

 SYMMETRY ALLOWED ELASTIC DISTORTION 2
  0.8164966  0.0000000  0.0000000
  0.0000000 -0.4082483  0.0000000
  0.0000000  0.0000000 -0.4082483

 SYMMETRY ALLOWED ELASTIC DISTORTION 3
  0.0000000  0.0000000  0.0000000
  0.0000000  0.7071068  0.0000000
  0.0000000  0.0000000 -0.7071068

 SYMMETRY ALLOWED ELASTIC DISTORTION 4
 -0.0000000  0.0000000  0.7071068
  0.0000000  0.0000000  0.0000000
  0.7071068  0.0000000  0.0000000

 SYMMETRY ALLOWED INTERNAL DEGREE(S) OF FREEDOM:  53
 TTTTTTTTTTTTTTTTTTTTTTTTTTTTTT SYMM        TELAPSE        3.66 TCPU        2.07
 TTTTTTTTTTTTTTTTTTTTTTTTTTTTTT INT_SCREEN  TELAPSE        3.69 TCPU        2.09

 *******************************************************************************
 *                             OPTIMIZATION STARTS                             *
 *******************************************************************************
 RECLASIFICATION OF INDICES FOR INTEGRAL CALC ACCORDING TO DIFFERENT CRITERIA:
           FIXDELTE                  FIXDELTX              FIXDELTN
          0.10000000               0.80000000                 57
 DEFAULT MAX NUM OF POINTS  114
 *******************************************************************************

 *******************************************************************************
 COORDINATE AND CELL OPTIMIZATION - POINT    1
 WARNING **** EXCBUF **** EXCH. BIPO BUFFER TOO SMALL - TO AVOID I/O SET EXCHSIZE =     9041328

 DFT PARAMETERS

     ATOM       ELECTRONS   NET CHARGE   R(ANGSTROM)
   1  12  MG     12.0000      0.0000     1.60000000
   5  53  I      25.0000      0.0000     1.33000000
  13   8  O       8.0000      0.0000     0.74000000

 SIZE OF GRID=    2613503
 TTTTTTTTTTTTTTTTTTTTTTTTTTTTTT MAKE_GRID2  TELAPSE       25.11 TCPU       23.49
 BECKE WEIGHT FUNCTION
 RADSAFE =     2.00
 TOLERANCES - DENSITY:10**- 6; POTENTIAL:10**- 9; GRID WGT:10**-14

 RADIAL INTEGRATION  - INTERVALS (POINTS,UPPER LIMIT):            1(300,  4.0*R)

 ANGULAR INTEGRATION - INTERVALS (ACCURACY LEVEL [N. POINTS] UPPER LIMIT):
  1(  6[ 146]   0.2)  2( 11[ 302]   0.5)  3( 14[ 590]   0.9)  4( 18[1454]   3.5)
  5( 14[ 590]9999.0)
 TTTTTTTTTTTTTTTTTTTTTTTTTTTTTT INT_CALC    TELAPSE       25.14 TCPU       23.52

 *******************************************************************************
 Mg(IO3)2 P21                                                                    
 CRYSTAL - SCF - TYPE OF CALCULATION :  RESTRICTED CLOSED SHELL
 *******************************************************************************

 CAPPA:IS1  6;IS2  6;IS3  6; K PTS MONK NET  80; SYMMOPS:K SPACE   4;G SPACE   2

 TTTTTTTTTTTTTTTTTTTTTTTTTTTTTT SDIK        TELAPSE       26.13 TCPU       24.51

 AAAAAAAAAAAAAAAAAAAAAAAAAAAAAAAAAAAAAAAAAAAAAAAAAAAAAAAAAAAAAAAAAAAAAAAAAAAAAAA
         ATOMIC WAVEFUNCTION(S)


 NUCLEAR CHARGE 12.0  SYMMETRY SPECIES            S    P
 N. ELECTRONS   12.0  NUMBER OF PRIMITIVE GTOS   14    7
                      NUMBER OF CONTRACTED GTOS   5    3
                      NUMBER OF CLOSED SHELLS     3    1
                      OPEN SHELL OCCUPATION       0    0

  ZNUC  SCFIT    TOTAL HF ENERGY   KINETIC ENERGY   VIRIAL THEOREM             ACCURACY
  12.0     8    -1.994903813E+02  2.003482110E+02 -1.995718306E+00  4.2E-06

 NUCLEAR CHARGE 25.0  SYMMETRY SPECIES            S    P    D
 N. ELECTRONS   25.0  NUMBER OF PRIMITIVE GTOS   10    9    9
                      NUMBER OF CONTRACTED GTOS   4    4    4
                      NUMBER OF CLOSED SHELLS     2    1    1
                      OPEN SHELL OCCUPATION       0    5    0

  ZNUC  SCFIT    TOTAL HF ENERGY   KINETIC ENERGY   VIRIAL THEOREM             ACCURACY
  25.0    10    -2.945672222E+02  1.114753143E+02 -3.642443522E+00  1.4E-06

 NUCLEAR CHARGE  8.0  SYMMETRY SPECIES            S    P
 N. ELECTRONS    8.0  NUMBER OF PRIMITIVE GTOS   10    6
                      NUMBER OF CONTRACTED GTOS   4    3
                      NUMBER OF CLOSED SHELLS     2    0
                      OPEN SHELL OCCUPATION       0    4

  ZNUC  SCFIT    TOTAL HF ENERGY   KINETIC ENERGY   VIRIAL THEOREM             ACCURACY
   8.0    13    -7.480300557E+01  7.484348361E+01 -1.999459164E+00  4.9E-06

 AAAAAAAAAAAAAAAAAAAAAAAAAAAAAAAAAAAAAAAAAAAAAAAAAAAAAAAAAAAAAAAAAAAAAAAAAAAAAAA

 CHARGE NORMALIZATION FACTOR   1.00000000
 TOTAL ATOMIC CHARGES:
  12.0000000  12.0000000  12.0000000  12.0000000  25.0000000  25.0000000
  25.0000000  25.0000000  25.0000000  25.0000000  25.0000000  25.0000000
   8.0000000   8.0000000   8.0000000   8.0000000   8.0000000   8.0000000
   8.0000000   8.0000000   8.0000000   8.0000000   8.0000000   8.0000000
   8.0000000   8.0000000   8.0000000   8.0000000   8.0000000   8.0000000
   8.0000000   8.0000000   8.0000000   8.0000000   8.0000000   8.0000000
 TTTTTTTTTTTTTTTTTTTTTTTTTTTTTT MOQGAD      TELAPSE       26.19 TCPU       24.56
 TTTTTTTTTTTTTTTTTTTTTTTTTTTTTT SHELLXN     TELAPSE       70.08 TCPU       68.45
 TTTTTTTTTTTTTTTTTTTTTTTTTTTTTT MONMO3      TELAPSE       70.55 TCPU       68.91
 NUMERICALLY INTEGRATED DENSITY    439.9999900243
 TTTTTTTTTTTTTTTTTTTTTTTTTTTTTT NUMDFT      TELAPSE       75.46 TCPU       73.81
 CYC   0 ETOT(AU) -4.975139595340E+03 DETOT -4.98E+03 tst  0.00E+00 PX  1.00E+00
 TTTTTTTTTTTTTTTTTTTTTTTTTTTTTT DIIS        TELAPSE       75.53 TCPU       73.88
 TTTTTTTTTTTTTTTTTTTTTTTTTTTTTT FDIK        TELAPSE       85.23 TCPU       83.56
 INSULATING STATE
 TOP OF VALENCE BANDS -    BAND    220; K   13; EIG -2.7640111E-01 AU
 TOP OF VALENCE BANDS -    BAND    220; K    1; EIG -2.9852537E-01 AU
 BOTTOM OF VIRTUAL BANDS - BAND    221; K    1; EIG -1.0893174E-01 AU
 INDIRECT ENERGY BAND GAP:   4.5571 eV
 TTTTTTTTTTTTTTTTTTTTTTTTTTTTTT PDIG        TELAPSE       85.76 TCPU       84.09
 CHARGE NORMALIZATION FACTOR   1.00000000
 TOTAL ATOMIC CHARGES:
  10.5986405  10.5986405  10.5985878  10.5985878  22.2142204  22.2142204
  22.2142637  22.2142637  22.2127440  22.2127440  22.2127954  22.2127954
   9.1972734   9.1972734   9.1953788   9.1953788   9.1181424   9.1181424
   9.1180033   9.1180033   9.1973153   9.1973153   9.1953968   9.1953968
   9.1299865   9.1299865   9.1366857   9.1366857   9.1969683   9.1969683
   9.1969288   9.1969288   9.1299726   9.1299726   9.1366963   9.1366963
 TTTTTTTTTTTTTTTTTTTTTTTTTTTTTT MOQGAD      TELAPSE       85.78 TCPU       84.11
 TTTTTTTTTTTTTTTTTTTTTTTTTTTTTT SHELLXN     TELAPSE      132.68 TCPU      131.00
 TTTTTTTTTTTTTTTTTTTTTTTTTTTTTT MONMO3      TELAPSE      133.14 TCPU      131.46
 NUMERICALLY INTEGRATED DENSITY    440.0000074599
 TTTTTTTTTTTTTTTTTTTTTTTTTTTTTT NUMDFT      TELAPSE      138.17 TCPU      136.48
 CYC   1 ETOT(AU) -4.966758241230E+03 DETOT  8.38E+00 tst  0.00E+00 PX  1.00E+00
 TTTTTTTTTTTTTTTTTTTTTTTTTTTTTT DIIS        TELAPSE      138.24 TCPU      136.55
 DIIS TEST: 0.10804E+02 AT SCF   CYCLE   1 - MIX   30 %
 TTTTTTTTTTTTTTTTTTTTTTTTTTTTTT FDIK        TELAPSE      140.19 TCPU      138.50
 INSULATING STATE
 TOP OF VALENCE BANDS -    BAND    220; K    9; EIG -1.0136724E-01 AU
 TOP OF VALENCE BANDS -    BAND    220; K    1; EIG -1.1486906E-01 AU
 BOTTOM OF VIRTUAL BANDS - BAND    221; K    1; EIG  7.3003367E-03 AU
 INDIRECT ENERGY BAND GAP:   2.9570 eV
 TTTTTTTTTTTTTTTTTTTTTTTTTTTTTT PDIG        TELAPSE      140.74 TCPU      139.04
 CHARGE NORMALIZATION FACTOR   1.00000000
 TOTAL ATOMIC CHARGES:
  10.7266469  10.7266469  10.7264940  10.7264940  24.0033957  24.0033957
  24.0036006  24.0036006  23.9821001  23.9821001  23.9820595  23.9820595
   8.5816742   8.5816742   8.5780220   8.5780220   8.5120430   8.5120430
   8.5120466   8.5120466   8.5816232   8.5816232   8.5780745   8.5780745
   8.5205539   8.5205539   8.5231240   8.5231240   8.5724809   8.5724809
   8.5723783   8.5723783   8.5205864   8.5205864   8.5230965   8.5230965
 TTTTTTTTTTTTTTTTTTTTTTTTTTTTTT MOQGAD      TELAPSE      140.75 TCPU      139.05
 TTTTTTTTTTTTTTTTTTTTTTTTTTTTTT SHELLXN     TELAPSE      187.09 TCPU      185.38
 TTTTTTTTTTTTTTTTTTTTTTTTTTTTTT MONMO3      TELAPSE      187.55 TCPU      185.83
 NUMERICALLY INTEGRATED DENSITY    440.0000108721
 TTTTTTTTTTTTTTTTTTTTTTTTTTTTTT NUMDFT      TELAPSE      192.48 TCPU      190.76
 CYC   2 ETOT(AU) -4.967144830452E+03 DETOT -3.87E-01 tst  1.77E-02 PX  7.14E-01
 TTTTTTTTTTTTTTTTTTTTTTTTTTTTTT DIIS        TELAPSE      192.55 TCPU      190.83
 DIIS TEST: 0.88450E+01 AT SCF   CYCLE   2 - DIIS ACTIVE - HISTORY:     2 CYCLES
 TTTTTTTTTTTTTTTTTTTTTTTTTTTTTT FDIK        TELAPSE      194.44 TCPU      192.69
 INSULATING STATE
 TOP OF VALENCE BANDS -    BAND    220; K   13; EIG -1.4959972E-01 AU
 TOP OF VALENCE BANDS -    BAND    220; K    1; EIG -1.6824830E-01 AU
 BOTTOM OF VIRTUAL BANDS - BAND    221; K    1; EIG  1.1812004E-02 AU
 INDIRECT ENERGY BAND GAP:   4.3922 eV
 TTTTTTTTTTTTTTTTTTTTTTTTTTTTTT PDIG        TELAPSE      194.97 TCPU      193.22
 CHARGE NORMALIZATION FACTOR   1.00000000
 TOTAL ATOMIC CHARGES:
  10.7368680  10.7368680  10.7367307  10.7367307  23.0668142  23.0668142
  23.0668993  23.0668993  23.0965902  23.0965902  23.0964876  23.0964876
   8.9061122   8.9061122   8.9086404   8.9086404   8.7715276   8.7715276
   8.7714190   8.7714190   8.9062002   8.9062002   8.9087274   8.9087274
   8.7962377   8.7962377   8.8055782   8.8055782   8.9116863   8.9116863
   8.9116718   8.9116718   8.7962321   8.7962321   8.8055769   8.8055769
 TTTTTTTTTTTTTTTTTTTTTTTTTTTTTT MOQGAD      TELAPSE      194.99 TCPU      193.23
 TTTTTTTTTTTTTTTTTTTTTTTTTTTTTT SHELLXN     TELAPSE      241.56 TCPU      239.79
 TTTTTTTTTTTTTTTTTTTTTTTTTTTTTT MONMO3      TELAPSE      242.02 TCPU      240.25
 NUMERICALLY INTEGRATED DENSITY    440.0000103035
 TTTTTTTTTTTTTTTTTTTTTTTTTTTTTT NUMDFT      TELAPSE      246.90 TCPU      245.12
 CYC   3 ETOT(AU) -4.968676491436E+03 DETOT -1.53E+00 tst  4.06E-03 PX  1.73E-01
 TTTTTTTTTTTTTTTTTTTTTTTTTTTTTT DIIS        TELAPSE      246.97 TCPU      245.19
 DIIS TEST: 0.44754E-01 AT SCF   CYCLE   3 - DIIS ACTIVE - HISTORY:     3 CYCLES
 TTTTTTTTTTTTTTTTTTTTTTTTTTTTTT FDIK        TELAPSE      248.89 TCPU      247.11
 INSULATING STATE
 TOP OF VALENCE BANDS -    BAND    220; K   13; EIG -1.5007679E-01 AU
 TOP OF VALENCE BANDS -    BAND    220; K    1; EIG -1.6855210E-01 AU
 BOTTOM OF VIRTUAL BANDS - BAND    221; K    1; EIG  1.4162700E-02 AU
 INDIRECT ENERGY BAND GAP:   4.4692 eV
 TTTTTTTTTTTTTTTTTTTTTTTTTTTTTT PDIG        TELAPSE      249.43 TCPU      247.65
 CHARGE NORMALIZATION FACTOR   1.00000000
 TOTAL ATOMIC CHARGES:
  10.7008981  10.7008981  10.7008467  10.7008467  23.1122023  23.1122023
  23.1122350  23.1122350  23.0961828  23.0961828  23.0962257  23.0962257
   8.8860536   8.8860536   8.8771489   8.8771489   8.8203932   8.8203932
   8.8202772   8.8202772   8.8861563   8.8861563   8.8771432   8.8771432
   8.8175457   8.8175457   8.8231629   8.8231629   8.8664676   8.8664676
   8.8663428   8.8663428   8.8174802   8.8174802   8.8232377   8.8232377
 TTTTTTTTTTTTTTTTTTTTTTTTTTTTTT MOQGAD      TELAPSE      249.45 TCPU      247.66
 TTTTTTTTTTTTTTTTTTTTTTTTTTTTTT SHELLXN     TELAPSE      295.82 TCPU      293.97
 TTTTTTTTTTTTTTTTTTTTTTTTTTTTTT MONMO3      TELAPSE      296.28 TCPU      294.43
 NUMERICALLY INTEGRATED DENSITY    440.0000103483
 TTTTTTTTTTTTTTTTTTTTTTTTTTTTTT NUMDFT      TELAPSE      301.25 TCPU      299.39
 CYC   4 ETOT(AU) -4.968677958868E+03 DETOT -1.47E-03 tst  6.29E-05 PX  1.75E-02
 TTTTTTTTTTTTTTTTTTTTTTTTTTTTTT DIIS        TELAPSE      301.32 TCPU      299.45
 DIIS TEST: 0.41052E-01 AT SCF   CYCLE   4 - DIIS ACTIVE - HISTORY:     4 CYCLES
 TTTTTTTTTTTTTTTTTTTTTTTTTTTTTT FDIK        TELAPSE      302.96 TCPU      301.09
 INSULATING STATE
 TOP OF VALENCE BANDS -    BAND    220; K   13; EIG -1.4895854E-01 AU
 TOP OF VALENCE BANDS -    BAND    220; K    1; EIG -1.6801962E-01 AU
 BOTTOM OF VIRTUAL BANDS - BAND    221; K    1; EIG  1.5631677E-02 AU
 INDIRECT ENERGY BAND GAP:   4.4787 eV
 TTTTTTTTTTTTTTTTTTTTTTTTTTTTTT PDIG        TELAPSE      303.50 TCPU      301.63
 CHARGE NORMALIZATION FACTOR   1.00000000
 TOTAL ATOMIC CHARGES:
  10.7011542  10.7011542  10.7010886  10.7010886  23.0995656  23.0995656
  23.0996640  23.0996640  23.1085996  23.1085996  23.1086179  23.1086179
   8.8950488   8.8950488   8.8991971   8.8991971   8.7815026   8.7815026
   8.7813883   8.7813883   8.8951435   8.8951435   8.8991991   8.8991991
   8.8047681   8.8047681   8.8100880   8.8100880   8.9001101   8.9001101
   8.9000049   8.9000049   8.8047009   8.8047009   8.8101587   8.8101587
 TTTTTTTTTTTTTTTTTTTTTTTTTTTTTT MOQGAD      TELAPSE      303.51 TCPU      301.64
 TTTTTTTTTTTTTTTTTTTTTTTTTTTTTT SHELLXN     TELAPSE      349.98 TCPU      348.04
 TTTTTTTTTTTTTTTTTTTTTTTTTTTTTT MONMO3      TELAPSE      350.44 TCPU      348.50
 NUMERICALLY INTEGRATED DENSITY    440.0000104145
 TTTTTTTTTTTTTTTTTTTTTTTTTTTTTT NUMDFT      TELAPSE      355.51 TCPU      353.55
 CYC   5 ETOT(AU) -4.968684081734E+03 DETOT -6.12E-03 tst  4.09E-05 PX  1.22E-02
 TTTTTTTTTTTTTTTTTTTTTTTTTTTTTT DIIS        TELAPSE      355.59 TCPU      353.62
 DIIS TEST: 0.64692E-02 AT SCF   CYCLE   5 - DIIS ACTIVE - HISTORY:     5 CYCLES
 TTTTTTTTTTTTTTTTTTTTTTTTTTTTTT FDIK        TELAPSE      357.71 TCPU      355.74
 INSULATING STATE
 TOP OF VALENCE BANDS -    BAND    220; K   13; EIG -1.4815391E-01 AU
 TOP OF VALENCE BANDS -    BAND    220; K    1; EIG -1.6728059E-01 AU
 BOTTOM OF VIRTUAL BANDS - BAND    221; K    1; EIG  1.7227345E-02 AU
 INDIRECT ENERGY BAND GAP:   4.5003 eV
 TTTTTTTTTTTTTTTTTTTTTTTTTTTTTT PDIG        TELAPSE      358.26 TCPU      356.28
 CHARGE NORMALIZATION FACTOR   1.00000000
 TOTAL ATOMIC CHARGES:
  10.7056190  10.7056190  10.7055521  10.7055521  23.0933255  23.0933255
  23.0934457  23.0934457  23.1045650  23.1045650  23.1045026  23.1045026
   8.8989779   8.8989779   8.8925613   8.8925613   8.7944257   8.7944257
   8.7942570   8.7942570   8.8991098   8.8991098   8.8925896   8.8925896
   8.8041262   8.8041262   8.8153009   8.8153009   8.8911165   8.8911165
   8.8910916   8.8910916   8.8041499   8.8041499   8.8152839   8.8152839
 TTTTTTTTTTTTTTTTTTTTTTTTTTTTTT MOQGAD      TELAPSE      358.27 TCPU      356.29
 TTTTTTTTTTTTTTTTTTTTTTTTTTTTTT SHELLXN     TELAPSE      404.57 TCPU      402.54
 TTTTTTTTTTTTTTTTTTTTTTTTTTTTTT MONMO3      TELAPSE      405.03 TCPU      403.00
 NUMERICALLY INTEGRATED DENSITY    440.0000103045
 TTTTTTTTTTTTTTTTTTTTTTTTTTTTTT NUMDFT      TELAPSE      410.08 TCPU      408.04
 CYC   6 ETOT(AU) -4.968684843055E+03 DETOT -7.61E-04 tst  3.13E-06 PX  3.21E-03
 TTTTTTTTTTTTTTTTTTTTTTTTTTTTTT DIIS        TELAPSE      410.15 TCPU      408.10
 DIIS TEST: 0.70159E-03 AT SCF   CYCLE   6 - DIIS ACTIVE - HISTORY:     6 CYCLES
 TTTTTTTTTTTTTTTTTTTTTTTTTTTTTT FDIK        TELAPSE      411.82 TCPU      409.76
 INSULATING STATE
 TOP OF VALENCE BANDS -    BAND    220; K   13; EIG -1.4842575E-01 AU
 TOP OF VALENCE BANDS -    BAND    220; K    1; EIG -1.6783719E-01 AU
 BOTTOM OF VIRTUAL BANDS - BAND    221; K    1; EIG  1.7059771E-02 AU
 INDIRECT ENERGY BAND GAP:   4.5031 eV
 TTTTTTTTTTTTTTTTTTTTTTTTTTTTTT PDIG        TELAPSE      412.35 TCPU      410.30
 CHARGE NORMALIZATION FACTOR   1.00000000
 TOTAL ATOMIC CHARGES:
  10.7046470  10.7046470  10.7045746  10.7045746  23.0987173  23.0987173
  23.0988422  23.0988422  23.0993854  23.0993854  23.0993434  23.0993434
   8.8900901   8.8900901   8.8979118   8.8979118   8.7905723   8.7905723
   8.7904235   8.7904235   8.8901961   8.8901961   8.8979385   8.8979385
   8.8124472   8.8124472   8.8121202   8.8121202   8.8941323   8.8941323
   8.8940733   8.8940733   8.8124554   8.8124554   8.8121296   8.8121296
 TTTTTTTTTTTTTTTTTTTTTTTTTTTTTT MOQGAD      TELAPSE      412.37 TCPU      410.31
 TTTTTTTTTTTTTTTTTTTTTTTTTTTTTT SHELLXN     TELAPSE      458.95 TCPU      456.78
 TTTTTTTTTTTTTTTTTTTTTTTTTTTTTT MONMO3      TELAPSE      459.41 TCPU      457.24
 NUMERICALLY INTEGRATED DENSITY    440.0000104164
 TTTTTTTTTTTTTTTTTTTTTTTTTTTTTT NUMDFT      TELAPSE      464.28 TCPU      462.10
 CYC   7 ETOT(AU) -4.968684722076E+03 DETOT  1.21E-04 tst  1.60E-06 PX  2.01E-03
 TTTTTTTTTTTTTTTTTTTTTTTTTTTTTT DIIS        TELAPSE      464.37 TCPU      462.19
 DIIS TEST: 0.14629E-02 AT SCF   CYCLE   7 - DIIS ACTIVE - HISTORY:     7 CYCLES
 TTTTTTTTTTTTTTTTTTTTTTTTTTTTTT FDIK        TELAPSE      466.02 TCPU      463.83
 INSULATING STATE
 TOP OF VALENCE BANDS -    BAND    220; K   13; EIG -1.4842924E-01 AU
 TOP OF VALENCE BANDS -    BAND    220; K    1; EIG -1.6764993E-01 AU
 BOTTOM OF VIRTUAL BANDS - BAND    221; K    1; EIG  1.7001918E-02 AU
 INDIRECT ENERGY BAND GAP:   4.5016 eV
 TTTTTTTTTTTTTTTTTTTTTTTTTTTTTT PDIG        TELAPSE      466.56 TCPU      464.36
 CHARGE NORMALIZATION FACTOR   1.00000000
 TOTAL ATOMIC CHARGES:
  10.7042759  10.7042759  10.7042043  10.7042043  23.0965755  23.0965755
  23.0967060  23.0967060  23.1021299  23.1021299  23.1020952  23.1020952
   8.8961428   8.8961428   8.8941030   8.8941030   8.7922644   8.7922644
   8.7921153   8.7921153   8.8962428   8.8962428   8.8941262   8.8941262
   8.8067147   8.8067147   8.8148837   8.8148837   8.8929377   8.8929377
   8.8928690   8.8928690   8.8067178   8.8067178   8.8148957   8.8148957
 TTTTTTTTTTTTTTTTTTTTTTTTTTTTTT MOQGAD      TELAPSE      466.57 TCPU      464.37
 TTTTTTTTTTTTTTTTTTTTTTTTTTTTTT SHELLXN     TELAPSE      513.04 TCPU      510.74
 TTTTTTTTTTTTTTTTTTTTTTTTTTTTTT MONMO3      TELAPSE      513.50 TCPU      511.19
 NUMERICALLY INTEGRATED DENSITY    440.0000103566
 TTTTTTTTTTTTTTTTTTTTTTTTTTTTTT NUMDFT      TELAPSE      518.60 TCPU      516.29
 CYC   8 ETOT(AU) -4.968684940473E+03 DETOT -2.18E-04 tst  7.06E-07 PX  1.22E-03
 TTTTTTTTTTTTTTTTTTTTTTTTTTTTTT DIIS        TELAPSE      518.70 TCPU      516.38
 DIIS TEST: 0.13543E-03 AT SCF   CYCLE   8 - DIIS ACTIVE - HISTORY:     8 CYCLES
 TTTTTTTTTTTTTTTTTTTTTTTTTTTTTT FDIK        TELAPSE      520.84 TCPU      518.51
 INSULATING STATE
 TOP OF VALENCE BANDS -    BAND    220; K   13; EIG -1.4833928E-01 AU
 TOP OF VALENCE BANDS -    BAND    220; K    1; EIG -1.6758935E-01 AU
 BOTTOM OF VIRTUAL BANDS - BAND    221; K    1; EIG  1.7116562E-02 AU
 INDIRECT ENERGY BAND GAP:   4.5023 eV
 TTTTTTTTTTTTTTTTTTTTTTTTTTTTTT PDIG        TELAPSE      521.37 TCPU      519.03
 CHARGE NORMALIZATION FACTOR   1.00000000
 TOTAL ATOMIC CHARGES:
  10.7046666  10.7046666  10.7045888  10.7045888  23.0950547  23.0950547
  23.0951895  23.0951895  23.1032621  23.1032621  23.1032398  23.1032398
   8.8958613   8.8958613   8.8949671   8.8949671   8.7929021   8.7929021
   8.7927508   8.7927508   8.8959601   8.8959601   8.8949728   8.8949728
   8.8072123   8.8072123   8.8136469   8.8136469   8.8924697   8.8924697
   8.8923742   8.8923742   8.8072206   8.8072206   8.8136606   8.8136606
 TTTTTTTTTTTTTTTTTTTTTTTTTTTTTT MOQGAD      TELAPSE      521.38 TCPU      519.04
 TTTTTTTTTTTTTTTTTTTTTTTTTTTTTT SHELLXN     TELAPSE      567.93 TCPU      565.54
 TTTTTTTTTTTTTTTTTTTTTTTTTTTTTT MONMO3      TELAPSE      568.38 TCPU      566.00
 NUMERICALLY INTEGRATED DENSITY    440.0000103389
 TTTTTTTTTTTTTTTTTTTTTTTTTTTTTT NUMDFT      TELAPSE      573.24 TCPU      570.85
 CYC   9 ETOT(AU) -4.968684944403E+03 DETOT -3.93E-06 tst  1.48E-08 PX  1.12E-03
 TTTTTTTTTTTTTTTTTTTTTTTTTTTTTT DIIS        TELAPSE      573.31 TCPU      570.92
 DIIS TEST: 0.22082E-04 AT SCF   CYCLE   9 - DIIS ACTIVE - HISTORY:     9 CYCLES
 TTTTTTTTTTTTTTTTTTTTTTTTTTTTTT FDIK        TELAPSE      574.88 TCPU      572.48
 INSULATING STATE
 TOP OF VALENCE BANDS -    BAND    220; K   13; EIG -1.4833763E-01 AU
 TOP OF VALENCE BANDS -    BAND    220; K    1; EIG -1.6755972E-01 AU
 BOTTOM OF VIRTUAL BANDS - BAND    221; K    1; EIG  1.7096499E-02 AU
 INDIRECT ENERGY BAND GAP:   4.5017 eV
 TTTTTTTTTTTTTTTTTTTTTTTTTTTTTT PDIG        TELAPSE      575.42 TCPU      573.02
 CHARGE NORMALIZATION FACTOR   1.00000000
 TOTAL ATOMIC CHARGES:
  10.7046495  10.7046495  10.7045717  10.7045717  23.0967087  23.0967087
  23.0968461  23.0968461  23.1015110  23.1015110  23.1014810  23.1014810
   8.8957207   8.8957207   8.8940874   8.8940874   8.7921624   8.7921624
   8.7920122   8.7920122   8.8958184   8.8958184   8.8940990   8.8940990
   8.8069480   8.8069480   8.8152877   8.8152877   8.8929607   8.8929607
   8.8928820   8.8928820   8.8069545   8.8069545   8.8152988   8.8152988
 TTTTTTTTTTTTTTTTTTTTTTTTTTTTTT MOQGAD      TELAPSE      575.44 TCPU      573.03
 TTTTTTTTTTTTTTTTTTTTTTTTTTTTTT SHELLXN     TELAPSE      621.92 TCPU      619.51
 TTTTTTTTTTTTTTTTTTTTTTTTTTTTTT MONMO3      TELAPSE      622.38 TCPU      619.97
 NUMERICALLY INTEGRATED DENSITY    440.0000103632
 TTTTTTTTTTTTTTTTTTTTTTTTTTTTTT NUMDFT      TELAPSE      627.30 TCPU      624.89
 CYC  10 ETOT(AU) -4.968684943776E+03 DETOT  6.26E-07 tst  2.23E-08 PX  5.52E-04
 TTTTTTTTTTTTTTTTTTTTTTTTTTTTTT DIIS        TELAPSE      627.38 TCPU      624.96
 DIIS TEST: 0.28264E-04 AT SCF   CYCLE  10 - DIIS ACTIVE - HISTORY:    10 CYCLES
 TTTTTTTTTTTTTTTTTTTTTTTTTTTTTT FDIK        TELAPSE      629.04 TCPU      626.62
 INSULATING STATE
 TOP OF VALENCE BANDS -    BAND    220; K   13; EIG -1.4835798E-01 AU
 TOP OF VALENCE BANDS -    BAND    220; K    1; EIG -1.6759535E-01 AU
 BOTTOM OF VIRTUAL BANDS - BAND    221; K    1; EIG  1.7107838E-02 AU
 INDIRECT ENERGY BAND GAP:   4.5026 eV
 TTTTTTTTTTTTTTTTTTTTTTTTTTTTTT PDIG        TELAPSE      629.57 TCPU      627.15
 CHARGE NORMALIZATION FACTOR   1.00000000
 TOTAL ATOMIC CHARGES:
  10.7046031  10.7046031  10.7045253  10.7045253  23.0958822  23.0958822
  23.0960211  23.0960211  23.1023861  23.1023861  23.1023549  23.1023549
   8.8959952   8.8959952   8.8944788   8.8944788   8.7925770   8.7925770
   8.7924289   8.7924289   8.8960904   8.8960904   8.8944929   8.8944929
   8.8070815   8.8070815   8.8142650   8.8142650   8.8927646   8.8927646
   8.8926892   8.8926892   8.8070861   8.8070861   8.8142777   8.8142777
 TTTTTTTTTTTTTTTTTTTTTTTTTTTTTT MOQGAD      TELAPSE      629.59 TCPU      627.17
 TTTTTTTTTTTTTTTTTTTTTTTTTTTTTT SHELLXN     TELAPSE      676.13 TCPU      673.70
 TTTTTTTTTTTTTTTTTTTTTTTTTTTTTT MONMO3      TELAPSE      676.59 TCPU      674.15
 NUMERICALLY INTEGRATED DENSITY    440.0000103483
 TTTTTTTTTTTTTTTTTTTTTTTTTTTTTT NUMDFT      TELAPSE      681.62 TCPU      679.18
 CYC  11 ETOT(AU) -4.968684947400E+03 DETOT -3.62E-06 tst  8.10E-09 PX  2.45E-04
 TTTTTTTTTTTTTTTTTTTTTTTTTTTTTT DIIS        TELAPSE      681.70 TCPU      679.25
 DIIS TEST: 0.27083E-05 AT SCF   CYCLE  11 - DIIS ACTIVE - HISTORY:    11 CYCLES
 TTTTTTTTTTTTTTTTTTTTTTTTTTTTTT FDIK        TELAPSE      683.56 TCPU      681.10
 INSULATING STATE
 TOP OF VALENCE BANDS -    BAND    220; K   13; EIG -1.4834608E-01 AU
 TOP OF VALENCE BANDS -    BAND    220; K    1; EIG -1.6758392E-01 AU
 BOTTOM OF VIRTUAL BANDS - BAND    221; K    1; EIG  1.7098546E-02 AU
 INDIRECT ENERGY BAND GAP:   4.5020 eV
 TTTTTTTTTTTTTTTTTTTTTTTTTTTTTT PDIG        TELAPSE      684.10 TCPU      681.64
 CHARGE NORMALIZATION FACTOR   1.00000000
 TOTAL ATOMIC CHARGES:
  10.7046176  10.7046176  10.7045408  10.7045408  23.0956727  23.0956727
  23.0958102  23.0958102  23.1025662  23.1025662  23.1025394  23.1025394
   8.8957572   8.8957572   8.8946684   8.8946684   8.7925982   8.7925982
   8.7924464   8.7924464   8.8958562   8.8958562   8.8946757   8.8946757
   8.8070183   8.8070183   8.8145062   8.8145062   8.8926335   8.8926335
   8.8925489   8.8925489   8.8070283   8.8070283   8.8145158   8.8145158
 TTTTTTTTTTTTTTTTTTTTTTTTTTTTTT MOQGAD      TELAPSE      684.11 TCPU      681.65
 TTTTTTTTTTTTTTTTTTTTTTTTTTTTTT SHELLXN     TELAPSE      730.51 TCPU      728.03
 TTTTTTTTTTTTTTTTTTTTTTTTTTTTTT MONMO3      TELAPSE      730.97 TCPU      728.48
 NUMERICALLY INTEGRATED DENSITY    440.0000103488
 TTTTTTTTTTTTTTTTTTTTTTTTTTTTTT NUMDFT      TELAPSE      735.90 TCPU      733.40
 CYC  12 ETOT(AU) -4.968684947305E+03 DETOT  9.50E-08 tst  1.10E-09 PX  1.66E-04
 TTTTTTTTTTTTTTTTTTTTTTTTTTTTTT DIIS        TELAPSE      735.97 TCPU      733.48
 DIIS TEST: 0.17015E-05 AT SCF   CYCLE  12 - DIIS ACTIVE - HISTORY:    12 CYCLES
 TTTTTTTTTTTTTTTTTTTTTTTTTTTTTT FDIK        TELAPSE      737.64 TCPU      735.13
 INSULATING STATE
 TOP OF VALENCE BANDS -    BAND    220; K   13; EIG -1.4834818E-01 AU
 TOP OF VALENCE BANDS -    BAND    220; K    1; EIG -1.6758342E-01 AU
 BOTTOM OF VIRTUAL BANDS - BAND    221; K    1; EIG  1.7117704E-02 AU
 INDIRECT ENERGY BAND GAP:   4.5026 eV
 TTTTTTTTTTTTTTTTTTTTTTTTTTTTTT PDIG        TELAPSE      738.18 TCPU      735.67
 CHARGE NORMALIZATION FACTOR   1.00000000
 TOTAL ATOMIC CHARGES:
  10.7046245  10.7046245  10.7045472  10.7045472  23.0958843  23.0958843
  23.0960240  23.0960240  23.1023505  23.1023505  23.1023187  23.1023187
   8.8959801   8.8959801   8.8944322   8.8944322   8.7925755   8.7925755
   8.7924261   8.7924261   8.8960766   8.8960766   8.8944466   8.8944466
   8.8071490   8.8071490   8.8142520   8.8142520   8.8927824   8.8927824
   8.8927120   8.8927120   8.8071556   8.8071556   8.8142628   8.8142628
 TTTTTTTTTTTTTTTTTTTTTTTTTTTTTT MOQGAD      TELAPSE      738.19 TCPU      735.69
 TTTTTTTTTTTTTTTTTTTTTTTTTTTTTT SHELLXN     TELAPSE      784.85 TCPU      782.33
 TTTTTTTTTTTTTTTTTTTTTTTTTTTTTT MONMO3      TELAPSE      785.31 TCPU      782.79
 NUMERICALLY INTEGRATED DENSITY    440.0000103496
 TTTTTTTTTTTTTTTTTTTTTTTTTTTTTT NUMDFT      TELAPSE      790.36 TCPU      787.83
 CYC  13 ETOT(AU) -4.968684947372E+03 DETOT -6.71E-08 tst  1.24E-09 PX  1.03E-04
 TTTTTTTTTTTTTTTTTTTTTTTTTTTTTT DIIS        TELAPSE      790.44 TCPU      787.91
 DIIS TEST: 0.11158E-05 AT SCF   CYCLE  13 - DIIS ACTIVE - HISTORY:    13 CYCLES
 TTTTTTTTTTTTTTTTTTTTTTTTTTTTTT FDIK        TELAPSE      792.41 TCPU      789.87
 INSULATING STATE
 TOP OF VALENCE BANDS -    BAND    220; K   13; EIG -1.4835035E-01 AU
 TOP OF VALENCE BANDS -    BAND    220; K    1; EIG -1.6758951E-01 AU
 BOTTOM OF VIRTUAL BANDS - BAND    221; K    1; EIG  1.7107760E-02 AU
 INDIRECT ENERGY BAND GAP:   4.5023 eV
 TTTTTTTTTTTTTTTTTTTTTTTTTTTTTT PDIG        TELAPSE      792.96 TCPU      790.41
 CHARGE NORMALIZATION FACTOR   1.00000000
 TOTAL ATOMIC CHARGES:
  10.7046170  10.7046170  10.7045393  10.7045393  23.0958206  23.0958206
  23.0959631  23.0959631  23.1024316  23.1024316  23.1023926  23.1023926
   8.8958915   8.8958915   8.8945674   8.8945674   8.7925792   8.7925792
   8.7924283   8.7924283   8.8959885   8.8959885   8.8945845   8.8945845
   8.8070478   8.8070478   8.8143688   8.8143688   8.8927030   8.8927030
   8.8926436   8.8926436   8.8070558   8.8070558   8.8143774   8.8143774
 TTTTTTTTTTTTTTTTTTTTTTTTTTTTTT MOQGAD      TELAPSE      792.97 TCPU      790.43
 TTTTTTTTTTTTTTTTTTTTTTTTTTTTTT SHELLXN     TELAPSE      839.49 TCPU      836.93
 TTTTTTTTTTTTTTTTTTTTTTTTTTTTTT MONMO3      TELAPSE      839.94 TCPU      837.39
 NUMERICALLY INTEGRATED DENSITY    440.0000103484
 TTTTTTTTTTTTTTTTTTTTTTTTTTTTTT NUMDFT      TELAPSE      844.82 TCPU      842.24
 CYC  14 ETOT(AU) -4.968684947507E+03 DETOT -1.35E-07 tst  2.56E-10 PX  4.41E-05
 TTTTTTTTTTTTTTTTTTTTTTTTTTTTTT DIIS        TELAPSE      844.90 TCPU      842.32
 DIIS TEST: 0.26158E-06 AT SCF   CYCLE  14 - DIIS ACTIVE - HISTORY:    14 CYCLES
 TTTTTTTTTTTTTTTTTTTTTTTTTTTTTT FDIK        TELAPSE      846.60 TCPU      844.02
 INSULATING STATE
 TOP OF VALENCE BANDS -    BAND    220; K   13; EIG -1.4834819E-01 AU
 TOP OF VALENCE BANDS -    BAND    220; K    1; EIG -1.6758297E-01 AU
 BOTTOM OF VIRTUAL BANDS - BAND    221; K    1; EIG  1.7108204E-02 AU
 INDIRECT ENERGY BAND GAP:   4.5023 eV
 TTTTTTTTTTTTTTTTTTTTTTTTTTTTTT PDIG        TELAPSE      847.13 TCPU      844.55
 CHARGE NORMALIZATION FACTOR   1.00000000
 TOTAL ATOMIC CHARGES:
  10.7046161  10.7046161  10.7045394  10.7045394  23.0957904  23.0957904
  23.0959295  23.0959295  23.1024598  23.1024598  23.1024281  23.1024281
   8.8958823   8.8958823   8.8945124   8.8945124   8.7925890   8.7925890
   8.7924329   8.7924329   8.8959851   8.8959851   8.8945164   8.8945164
   8.8071072   8.8071072   8.8143576   8.8143576   8.8927250   8.8927250
   8.8926416   8.8926416   8.8071238   8.8071238   8.8143633   8.8143633
 TTTTTTTTTTTTTTTTTTTTTTTTTTTTTT MOQGAD      TELAPSE      847.15 TCPU      844.56
 TTTTTTTTTTTTTTTTTTTTTTTTTTTTTT SHELLXN     TELAPSE      893.76 TCPU      891.08
 TTTTTTTTTTTTTTTTTTTTTTTTTTTTTT MONMO3      TELAPSE      894.21 TCPU      891.53
 NUMERICALLY INTEGRATED DENSITY    440.0000103496
 TTTTTTTTTTTTTTTTTTTTTTTTTTTTTT NUMDFT      TELAPSE      899.10 TCPU      896.41
 CYC  15 ETOT(AU) -4.968684947489E+03 DETOT  1.74E-08 tst  1.14E-10 PX  2.79E-05
 TTTTTTTTTTTTTTTTTTTTTTTTTTTTTT DIIS        TELAPSE      899.19 TCPU      896.50
 DIIS TEST: 0.17947E-06 AT SCF   CYCLE  15 - DIIS ACTIVE - HISTORY:    15 CYCLES
 TTTTTTTTTTTTTTTTTTTTTTTTTTTTTT FDIK        TELAPSE      901.24 TCPU      898.53
 INSULATING STATE
 TOP OF VALENCE BANDS -    BAND    220; K   13; EIG -1.4834941E-01 AU
 TOP OF VALENCE BANDS -    BAND    220; K    1; EIG -1.6758821E-01 AU
 BOTTOM OF VIRTUAL BANDS - BAND    221; K    1; EIG  1.7108801E-02 AU
 INDIRECT ENERGY BAND GAP:   4.5023 eV
 TTTTTTTTTTTTTTTTTTTTTTTTTTTTTT PDIG        TELAPSE      901.86 TCPU      899.15
 CHARGE NORMALIZATION FACTOR   1.00000000
 TOTAL ATOMIC CHARGES:
  10.7046197  10.7046197  10.7045402  10.7045402  23.0958184  23.0958184
  23.0959623  23.0959623  23.1024290  23.1024290  23.1023929  23.1023929
   8.8958968   8.8958968   8.8945546   8.8945546   8.7925776   8.7925776
   8.7924327   8.7924327   8.8959837   8.8959837   8.8945814   8.8945814
   8.8070622   8.8070622   8.8143596   8.8143596   8.8927030   8.8927030
   8.8926483   8.8926483   8.8070580   8.8070580   8.8143795   8.8143795
 TTTTTTTTTTTTTTTTTTTTTTTTTTTTTT MOQGAD      TELAPSE      901.87 TCPU      899.17
 TTTTTTTTTTTTTTTTTTTTTTTTTTTTTT SHELLXN     TELAPSE      948.32 TCPU      945.53
 TTTTTTTTTTTTTTTTTTTTTTTTTTTTTT MONMO3      TELAPSE      948.78 TCPU      945.99
 NUMERICALLY INTEGRATED DENSITY    440.0000103486
 TTTTTTTTTTTTTTTTTTTTTTTTTTTTTT NUMDFT      TELAPSE      953.69 TCPU      950.89
 CYC  16 ETOT(AU) -4.968684947494E+03 DETOT -4.83E-09 tst  9.61E-11 PX  2.70E-05
 TTTTTTTTTTTTTTTTTTTTTTTTTTTTTT DIIS        TELAPSE      953.81 TCPU      951.01
 DIIS TEST: 0.49435E-07 AT SCF   CYCLE  16 - DIIS ACTIVE - HISTORY:    16 CYCLES
 TTTTTTTTTTTTTTTTTTTTTTTTTTTTTT FDIK        TELAPSE      955.85 TCPU      953.04
 INSULATING STATE
 TOP OF VALENCE BANDS -    BAND    220; K   13; EIG -1.4834920E-01 AU
 TOP OF VALENCE BANDS -    BAND    220; K    1; EIG -1.6758604E-01 AU
 BOTTOM OF VIRTUAL BANDS - BAND    221; K    1; EIG  1.7108128E-02 AU
 INDIRECT ENERGY BAND GAP:   4.5023 eV
 TTTTTTTTTTTTTTTTTTTTTTTTTTTTTT PDIG        TELAPSE      956.39 TCPU      953.57
 CHARGE NORMALIZATION FACTOR   1.00000000
 TOTAL ATOMIC CHARGES:
  10.7046142  10.7046142  10.7045408  10.7045408  23.0958111  23.0958111
  23.0959469  23.0959469  23.1024447  23.1024447  23.1024074  23.1024074
   8.8958743   8.8958743   8.8945500   8.8945500   8.7925931   8.7925931
   8.7924207   8.7924207   8.8960017   8.8960017   8.8945312   8.8945312
   8.8070659   8.8070659   8.8143758   8.8143758   8.8927263   8.8927263
   8.8926322   8.8926322   8.8071077   8.8071077   8.8143559   8.8143559
 TTTTTTTTTTTTTTTTTTTTTTTTTTTTTT MOQGAD      TELAPSE      956.40 TCPU      953.58
 TTTTTTTTTTTTTTTTTTTTTTTTTTTTTT SHELLXN     TELAPSE     1003.10 TCPU     1000.18
 TTTTTTTTTTTTTTTTTTTTTTTTTTTTTT MONMO3      TELAPSE     1003.56 TCPU     1000.64
 NUMERICALLY INTEGRATED DENSITY    440.0000103491
 TTTTTTTTTTTTTTTTTTTTTTTTTTTTTT NUMDFT      TELAPSE     1008.44 TCPU     1005.51
 CYC  17 ETOT(AU) -4.968684947492E+03 DETOT  1.66E-09 tst  3.07E-11 PX  2.05E-05
 TTTTTTTTTTTTTTTTTTTTTTTTTTTTTT DIIS        TELAPSE     1008.54 TCPU     1005.61
 DIIS TEST: 0.34173E-07 AT SCF   CYCLE  17 - DIIS ACTIVE - HISTORY:    17 CYCLES
 TTTTTTTTTTTTTTTTTTTTTTTTTTTTTT FDIK        TELAPSE     1010.08 TCPU     1007.14
 INSULATING STATE
 TOP OF VALENCE BANDS -    BAND    220; K   13; EIG -1.4834918E-01 AU
 TOP OF VALENCE BANDS -    BAND    220; K    1; EIG -1.6758613E-01 AU
 BOTTOM OF VIRTUAL BANDS - BAND    221; K    1; EIG  1.7108185E-02 AU
 INDIRECT ENERGY BAND GAP:   4.5023 eV
 TTTTTTTTTTTTTTTTTTTTTTTTTTTTTT PDIG        TELAPSE     1010.63 TCPU     1007.68
 CHARGE NORMALIZATION FACTOR   1.00000000
 TOTAL ATOMIC CHARGES:
  10.7046189  10.7046189  10.7045364  10.7045364  23.0958056  23.0958056
  23.0959534  23.0959534  23.1024408  23.1024408  23.1024098  23.1024098
   8.8959070   8.8959070   8.8945173   8.8945173   8.7925710   8.7925710
   8.7924434   8.7924434   8.8959678   8.8959678   8.8945668   8.8945668
   8.8070996   8.8070996   8.8143432   8.8143432   8.8927017   8.8927017
   8.8926571   8.8926571   8.8070711   8.8070711   8.8143890   8.8143890
 TTTTTTTTTTTTTTTTTTTTTTTTTTTTTT MOQGAD      TELAPSE     1010.64 TCPU     1007.70
 TTTTTTTTTTTTTTTTTTTTTTTTTTTTTT SHELLXN     TELAPSE     1057.08 TCPU     1054.04
 TTTTTTTTTTTTTTTTTTTTTTTTTTTTTT MONMO3      TELAPSE     1057.54 TCPU     1054.50
 NUMERICALLY INTEGRATED DENSITY    440.0000103490
 TTTTTTTTTTTTTTTTTTTTTTTTTTTTTT NUMDFT      TELAPSE     1062.45 TCPU     1059.39
 CYC  18 ETOT(AU) -4.968684947490E+03 DETOT  2.28E-09 tst  7.41E-11 PX  1.61E-05
 TTTTTTTTTTTTTTTTTTTTTTTTTTTTTT DIIS        TELAPSE     1062.59 TCPU     1059.53
 DIIS TEST: 0.45028E-07 AT SCF   CYCLE  18 - DIIS ACTIVE - HISTORY:    18 CYCLES
 TTTTTTTTTTTTTTTTTTTTTTTTTTTTTT FDIK        TELAPSE     1064.53 TCPU     1061.46
 INSULATING STATE
 TOP OF VALENCE BANDS -    BAND    220; K   13; EIG -1.4834925E-01 AU
 TOP OF VALENCE BANDS -    BAND    220; K    1; EIG -1.6758667E-01 AU
 BOTTOM OF VIRTUAL BANDS - BAND    221; K    1; EIG  1.7108331E-02 AU
 INDIRECT ENERGY BAND GAP:   4.5023 eV
 TTTTTTTTTTTTTTTTTTTTTTTTTTTTTT PDIG        TELAPSE     1065.06 TCPU     1062.00
 CHARGE NORMALIZATION FACTOR   1.00000000
 TOTAL ATOMIC CHARGES:
  10.7046173  10.7046173  10.7045396  10.7045396  23.0958123  23.0958123
  23.0959538  23.0959538  23.1024378  23.1024378  23.1024035  23.1024035
   8.8958881   8.8958881   8.8945424   8.8945424   8.7925838   8.7925838
   8.7924300   8.7924300   8.8959875   8.8959875   8.8945546   8.8945546
   8.8070746   8.8070746   8.8143623   8.8143623   8.8927137   8.8927137
   8.8926444   8.8926444   8.8070829   8.8070829   8.8143715   8.8143715
 TTTTTTTTTTTTTTTTTTTTTTTTTTTTTT MOQGAD      TELAPSE     1065.08 TCPU     1062.01
 TTTTTTTTTTTTTTTTTTTTTTTTTTTTTT SHELLXN     TELAPSE     1111.77 TCPU     1108.63
 TTTTTTTTTTTTTTTTTTTTTTTTTTTTTT MONMO3      TELAPSE     1112.23 TCPU     1109.09
 NUMERICALLY INTEGRATED DENSITY    440.0000103490
 TTTTTTTTTTTTTTTTTTTTTTTTTTTTTT NUMDFT      TELAPSE     1117.08 TCPU     1113.93
 CYC  19 ETOT(AU) -4.968684947494E+03 DETOT -3.41E-09 tst  2.23E-11 PX  1.10E-05
 TTTTTTTTTTTTTTTTTTTTTTTTTTTTTT DIIS        TELAPSE     1117.21 TCPU     1114.06
 DIIS TEST: 0.25048E-08 AT SCF   CYCLE  19 - DIIS ACTIVE - HISTORY:    19 CYCLES
 TTTTTTTTTTTTTTTTTTTTTTTTTTTTTT FDIK        TELAPSE     1119.30 TCPU     1116.14
 INSULATING STATE
 TOP OF VALENCE BANDS -    BAND    220; K   13; EIG -1.4834927E-01 AU
 TOP OF VALENCE BANDS -    BAND    220; K    1; EIG -1.6758659E-01 AU
 BOTTOM OF VIRTUAL BANDS - BAND    221; K    1; EIG  1.7108243E-02 AU
 INDIRECT ENERGY BAND GAP:   4.5023 eV
 TTTTTTTTTTTTTTTTTTTTTTTTTTTTTT PDIG        TELAPSE     1119.84 TCPU     1116.67
 CHARGE NORMALIZATION FACTOR   1.00000000
 TOTAL ATOMIC CHARGES:
  10.7046170  10.7046170  10.7045393  10.7045393  23.0958116  23.0958116
  23.0959528  23.0959528  23.1024397  23.1024397  23.1024044  23.1024044
   8.8958911   8.8958911   8.8945403   8.8945403   8.7925807   8.7925807
   8.7924305   8.7924305   8.8959865   8.8959865   8.8945532   8.8945532
   8.8070757   8.8070757   8.8143625   8.8143625   8.8927138   8.8927138
   8.8926418   8.8926418   8.8070876   8.8070876   8.8143715   8.8143715
 TTTTTTTTTTTTTTTTTTTTTTTTTTTTTT MOQGAD      TELAPSE     1119.85 TCPU     1116.68
 TTTTTTTTTTTTTTTTTTTTTTTTTTTTTT SHELLXN     TELAPSE     1166.37 TCPU     1163.16
 TTTTTTTTTTTTTTTTTTTTTTTTTTTTTT MONMO3      TELAPSE     1166.83 TCPU     1163.62
 NUMERICALLY INTEGRATED DENSITY    440.0000103490
 TTTTTTTTTTTTTTTTTTTTTTTTTTTTTT NUMDFT      TELAPSE     1171.96 TCPU     1168.74
 CYC  20 ETOT(AU) -4.968684947492E+03 DETOT  1.51E-09 tst  2.07E-13 PX  6.35E-06
 TTTTTTTTTTTTTTTTTTTTTTTTTTTTTT DIIS        TELAPSE     1172.10 TCPU     1168.87
 DIIS TEST: 0.51663E-09 AT SCF   CYCLE  20 - DIIS ACTIVE - HISTORY:    20 CYCLES
 TTTTTTTTTTTTTTTTTTTTTTTTTTTTTT FDIK        TELAPSE     1174.02 TCPU     1170.79
 INSULATING STATE
 TOP OF VALENCE BANDS -    BAND    220; K   13; EIG -1.4834922E-01 AU
 TOP OF VALENCE BANDS -    BAND    220; K    1; EIG -1.6758644E-01 AU
 BOTTOM OF VIRTUAL BANDS - BAND    221; K    1; EIG  1.7108334E-02 AU
 INDIRECT ENERGY BAND GAP:   4.5023 eV
 TTTTTTTTTTTTTTTTTTTTTTTTTTTTTT PDIG        TELAPSE     1174.55 TCPU     1171.32
 CHARGE NORMALIZATION FACTOR   1.00000000
 TOTAL ATOMIC CHARGES:
[...]
-rw-r--r-- 1 fbodo linuxusers         0 Dec 29 10:29 fort.8.pe000
-rw-r--r-- 1 fbodo linuxusers         0 Dec 29 10:29 fort.8.pe001
-rw-r--r-- 1 fbodo linuxusers         0 Dec 29 10:29 fort.8.pe002
-rw-r--r-- 1 fbodo linuxusers         0 Dec 29 10:29 fort.8.pe003
-rw-r--r-- 1 fbodo linuxusers         0 Dec 29 10:29 fort.8.pe004
-rw-r--r-- 1 fbodo linuxusers         0 Dec 29 10:29 fort.8.pe005
-rw-r--r-- 1 fbodo linuxusers         0 Dec 29 10:29 fort.8.pe006
-rw-r--r-- 1 fbodo linuxusers         0 Dec 29 10:29 fort.8.pe007
-rw-r--r-- 1 fbodo linuxusers         0 Dec 29 10:29 fort.8.pe008
-rw-r--r-- 1 fbodo linuxusers         0 Dec 29 10:29 fort.8.pe009
-rw-r--r-- 1 fbodo linuxusers         0 Dec 29 10:29 fort.8.pe010
-rw-r--r-- 1 fbodo linuxusers         0 Dec 29 10:29 fort.8.pe011
-rw-r--r-- 1 fbodo linuxusers         0 Dec 29 10:29 fort.8.pe012
-rw-r--r-- 1 fbodo linuxusers         0 Dec 29 10:29 fort.8.pe013
-rw-r--r-- 1 fbodo linuxusers         0 Dec 29 10:29 fort.8.pe014
-rw-r--r-- 1 fbodo linuxusers         0 Dec 29 10:29 fort.8.pe015
-rw-r--r-- 1 fbodo linuxusers         0 Dec 29 10:29 fort.8.pe016
-rw-r--r-- 1 fbodo linuxusers         0 Dec 29 10:29 fort.8.pe017
-rw-r--r-- 1 fbodo linuxusers         0 Dec 29 10:29 fort.8.pe018
-rw-r--r-- 1 fbodo linuxusers         0 Dec 29 10:29 fort.8.pe019
-rw-r--r-- 1 fbodo linuxusers         0 Dec 29 10:29 fort.8.pe020
-rw-r--r-- 1 fbodo linuxusers         0 Dec 29 10:29 fort.8.pe021
-rw-r--r-- 1 fbodo linuxusers         0 Dec 29 10:29 fort.8.pe022
-rw-r--r-- 1 fbodo linuxusers         0 Dec 29 10:29 fort.8.pe023
-rw-r--r-- 1 fbodo linuxusers         0 Dec 29 10:29 fort.8.pe024
-rw-r--r-- 1 fbodo linuxusers         0 Dec 29 10:29 fort.8.pe025
-rw-r--r-- 1 fbodo linuxusers         0 Dec 29 10:29 fort.8.pe026
-rw-r--r-- 1 fbodo linuxusers         0 Dec 29 10:29 fort.8.pe027
-rw-r--r-- 1 fbodo linuxusers         0 Dec 29 10:29 fort.8.pe028
-rw-r--r-- 1 fbodo linuxusers         0 Dec 29 10:29 fort.8.pe029
-rw-r--r-- 1 fbodo linuxusers         0 Dec 29 10:29 fort.8.pe030
-rw-r--r-- 1 fbodo linuxusers         0 Dec 29 10:29 fort.8.pe031
-rw-r--r-- 1 fbodo linuxusers         0 Dec 29 10:29 fort.8.pe032
-rw-r--r-- 1 fbodo linuxusers         0 Dec 29 10:29 fort.8.pe033
-rw-r--r-- 1 fbodo linuxusers         0 Dec 29 10:29 fort.8.pe034
-rw-r--r-- 1 fbodo linuxusers         0 Dec 29 10:29 fort.8.pe035
-rw-r--r-- 1 fbodo linuxusers   5068936 Dec 29 23:42 fort.8.pe036
-rw-r--r-- 1 fbodo linuxusers  10137864 Dec 29 23:42 fort.8.pe037
-rw-r--r-- 1 fbodo linuxusers  10137864 Dec 29 23:42 fort.8.pe038
-rw-r--r-- 1 fbodo linuxusers   5068936 Dec 29 23:42 fort.8.pe039
-rw-r--r-- 1 fbodo linuxusers   2534472 Dec 29 23:42 fort.8.pe040
-rw-r--r-- 1 fbodo linuxusers   2534472 Dec 29 23:42 fort.8.pe041
-rw-r--r-- 1 fbodo linuxusers  10137864 Dec 29 23:42 fort.8.pe042
-rw-r--r-- 1 fbodo linuxusers  10137864 Dec 29 23:42 fort.8.pe043
-rw-r--r-- 1 fbodo linuxusers   2534472 Dec 29 23:42 fort.8.pe044
-rw-r--r-- 1 fbodo linuxusers   2534472 Dec 29 23:42 fort.8.pe045
-rw-r--r-- 1 fbodo linuxusers   2534472 Dec 29 23:42 fort.8.pe046
-rw-r--r-- 1 fbodo linuxusers   2534472 Dec 29 23:42 fort.8.pe047
-rw-r--r-- 1 fbodo linuxusers  10137864 Dec 29 23:42 fort.8.pe048
-rw-r--r-- 1 fbodo linuxusers  10137864 Dec 29 23:42 fort.8.pe049
-rw-r--r-- 1 fbodo linuxusers   2534472 Dec 29 23:42 fort.8.pe050
-rw-r--r-- 1 fbodo linuxusers   2534472 Dec 29 23:42 fort.8.pe051
-rw-r--r-- 1 fbodo linuxusers   1267240 Dec 29 23:42 fort.8.pe052
-rw-r--r-- 1 fbodo linuxusers   1267240 Dec 29 23:42 fort.8.pe053
-rw-r--r-- 1 fbodo linuxusers  10137864 Dec 29 23:42 fort.8.pe054
-rw-r--r-- 1 fbodo linuxusers  10137864 Dec 29 23:42 fort.8.pe055
-rw-r--r-- 1 fbodo linuxusers   1267240 Dec 29 23:42 fort.8.pe056
-rw-r--r-- 1 fbodo linuxusers   1267240 Dec 29 23:42 fort.8.pe057
-rw-r--r-- 1 fbodo linuxusers  10137864 Dec 29 23:42 fort.8.pe058
-rw-r--r-- 1 fbodo linuxusers  10137864 Dec 29 23:42 fort.8.pe059
-rw-r--r-- 1 fbodo linuxusers  10137864 Dec 29 23:42 fort.8.pe060
-rw-r--r-- 1 fbodo linuxusers  10137864 Dec 29 23:42 fort.8.pe061
-rw-r--r-- 1 fbodo linuxusers  10137864 Dec 29 23:42 fort.8.pe062
-rw-r--r-- 1 fbodo linuxusers  10137864 Dec 29 23:42 fort.8.pe063
-rw-r--r-- 1 fbodo linuxusers  10137864 Dec 29 23:42 fort.8.pe064
-rw-r--r-- 1 fbodo linuxusers  10137864 Dec 29 23:42 fort.8.pe065
-rw-r--r-- 1 fbodo linuxusers  10137864 Dec 29 23:42 fort.8.pe066
-rw-r--r-- 1 fbodo linuxusers  10137864 Dec 29 23:42 fort.8.pe067
-rw-r--r-- 1 fbodo linuxusers  10137864 Dec 29 23:42 fort.8.pe068
-rw-r--r-- 1 fbodo linuxusers  10137864 Dec 29 23:42 fort.8.pe069
-rw-r--r-- 1 fbodo linuxusers  10137864 Dec 29 23:42 fort.8.pe070
-rw-r--r-- 1 fbodo linuxusers  10137864 Dec 29 23:42 fort.8.pe071
-rw-r--r-- 1 fbodo linuxusers  10137864 Dec 29 23:42 fort.8.pe072
-rw-r--r-- 1 fbodo linuxusers  10137864 Dec 29 23:42 fort.8.pe073
-rw-r--r-- 1 fbodo linuxusers  10137864 Dec 29 23:42 fort.8.pe074
-rw-r--r-- 1 fbodo linuxusers  10137864 Dec 29 23:42 fort.8.pe075
-rw-r--r-- 1 fbodo linuxusers  10137864 Dec 29 23:42 fort.8.pe076
-rw-r--r-- 1 fbodo linuxusers  10137864 Dec 29 23:42 fort.8.pe077
-rw-r--r-- 1 fbodo linuxusers  10137864 Dec 29 23:42 fort.8.pe078
-rw-r--r-- 1 fbodo linuxusers  10137864 Dec 29 23:42 fort.8.pe079
-rw-r--r-- 1 fbodo linuxusers  10137864 Dec 29 23:42 fort.8.pe080
-rw-r--r-- 1 fbodo linuxusers  10137864 Dec 29 23:42 fort.8.pe081
-rw-r--r-- 1 fbodo linuxusers  10137864 Dec 29 23:42 fort.8.pe082
-rw-r--r-- 1 fbodo linuxusers  10137864 Dec 29 23:42 fort.8.pe083
-rw-r--r-- 1 fbodo linuxusers  10137864 Dec 29 23:42 fort.8.pe084
-rw-r--r-- 1 fbodo linuxusers  10137864 Dec 29 23:42 fort.8.pe085
-rw-r--r-- 1 fbodo linuxusers  10137864 Dec 29 23:42 fort.8.pe086
-rw-r--r-- 1 fbodo linuxusers  10137864 Dec 29 23:42 fort.8.pe087
-rw-r--r-- 1 fbodo linuxusers  10137864 Dec 29 23:42 fort.8.pe088
-rw-r--r-- 1 fbodo linuxusers  10137864 Dec 29 23:42 fort.8.pe089
-rw-r--r-- 1 fbodo linuxusers  10137864 Dec 29 23:42 fort.8.pe090
-rw-r--r-- 1 fbodo linuxusers  10137864 Dec 29 23:42 fort.8.pe091
-rw-r--r-- 1 fbodo linuxusers  10137864 Dec 29 23:42 fort.8.pe092
-rw-r--r-- 1 fbodo linuxusers  10137864 Dec 29 23:42 fort.8.pe093
-rw-r--r-- 1 fbodo linuxusers  10137864 Dec 29 23:42 fort.8.pe094
-rw-r--r-- 1 fbodo linuxusers  10137864 Dec 29 23:42 fort.8.pe095
-rw-r--r-- 1 fbodo linuxusers  10137864 Dec 29 23:42 fort.8.pe096
-rw-r--r-- 1 fbodo linuxusers  10137864 Dec 29 23:42 fort.8.pe097
-rw-r--r-- 1 fbodo linuxusers  10137864 Dec 29 23:42 fort.8.pe098
-rw-r--r-- 1 fbodo linuxusers  10137864 Dec 29 23:42 fort.8.pe099
-rw-r--r-- 1 fbodo linuxusers  10137864 Dec 29 23:42 fort.8.pe100
-rw-r--r-- 1 fbodo linuxusers  10137864 Dec 29 23:42 fort.8.pe101
-rw-r--r-- 1 fbodo linuxusers  10137864 Dec 29 23:42 fort.8.pe102
-rw-r--r-- 1 fbodo linuxusers  10137864 Dec 29 23:42 fort.8.pe103
-rw-r--r-- 1 fbodo linuxusers  10137864 Dec 29 23:42 fort.8.pe104
-rw-r--r-- 1 fbodo linuxusers  10137864 Dec 29 23:42 fort.8.pe105
-rw-r--r-- 1 fbodo linuxusers   5068936 Dec 29 23:42 fort.8.pe106
-rw-r--r-- 1 fbodo linuxusers  10137864 Dec 29 23:42 fort.8.pe107
-rw-r--r-- 1 fbodo linuxusers  10137864 Dec 29 23:42 fort.8.pe108
-rw-r--r-- 1 fbodo linuxusers   5068936 Dec 29 23:42 fort.8.pe109
-rw-r--r-- 1 fbodo linuxusers   2534472 Dec 29 23:42 fort.8.pe110
-rw-r--r-- 1 fbodo linuxusers   2534472 Dec 29 23:42 fort.8.pe111
-rw-r--r-- 1 fbodo linuxusers  10137864 Dec 29 23:42 fort.8.pe112
-rw-r--r-- 1 fbodo linuxusers  10137864 Dec 29 23:42 fort.8.pe113
-rw-r--r-- 1 fbodo linuxusers   2534472 Dec 29 23:42 fort.8.pe114
-rw-r--r-- 1 fbodo linuxusers   2534472 Dec 29 23:42 fort.8.pe115
-rw-r--r-- 1 fbodo linuxusers   2534472 Dec 29 23:42 fort.8.pe116
-rw-r--r-- 1 fbodo linuxusers   2534472 Dec 29 23:42 fort.8.pe117
-rw-r--r-- 1 fbodo linuxusers  10137864 Dec 29 23:42 fort.8.pe118
-rw-r--r-- 1 fbodo linuxusers  10137864 Dec 29 23:42 fort.8.pe119
-rw-r--r-- 1 fbodo linuxusers   2534472 Dec 29 23:42 fort.8.pe120
-rw-r--r-- 1 fbodo linuxusers   2534472 Dec 29 23:42 fort.8.pe121
-rw-r--r-- 1 fbodo linuxusers   1267240 Dec 29 23:42 fort.8.pe122
-rw-r--r-- 1 fbodo linuxusers   1267240 Dec 29 23:42 fort.8.pe123
-rw-r--r-- 1 fbodo linuxusers  10137864 Dec 29 23:42 fort.8.pe124
-rw-r--r-- 1 fbodo linuxusers  10137864 Dec 29 23:42 fort.8.pe125
-rw-r--r-- 1 fbodo linuxusers   1267240 Dec 29 23:42 fort.8.pe126
-rw-r--r-- 1 fbodo linuxusers   1267240 Dec 29 23:42 fort.8.pe127
-rw-r----- 1 fbodo linuxusers  15730188 Dec 29 23:50 fort.9
-rw-r--r-- 1 fbodo linuxusers  10782672 Dec 29 23:42 fort.95.pe000
-rw-r--r-- 1 fbodo linuxusers  10782672 Dec 29 23:42 fort.95.pe001
-rw-r--r-- 1 fbodo linuxusers  10782672 Dec 29 23:42 fort.95.pe002
-rw-r--r-- 1 fbodo linuxusers  10782672 Dec 29 23:42 fort.95.pe003
-rw-r--r-- 1 fbodo linuxusers  10782672 Dec 29 23:42 fort.95.pe004
-rw-r--r-- 1 fbodo linuxusers  10782672 Dec 29 23:42 fort.95.pe005
-rw-r--r-- 1 fbodo linuxusers  10782672 Dec 29 23:42 fort.95.pe006
-rw-r--r-- 1 fbodo linuxusers  10782672 Dec 29 23:42 fort.95.pe007
-rw-r--r-- 1 fbodo linuxusers  10782672 Dec 29 23:42 fort.95.pe008
-rw-r--r-- 1 fbodo linuxusers  10782672 Dec 29 23:42 fort.95.pe009
-rw-r--r-- 1 fbodo linuxusers  10782672 Dec 29 23:42 fort.95.pe010
-rw-r--r-- 1 fbodo linuxusers  10782672 Dec 29 23:42 fort.95.pe011
-rw-r--r-- 1 fbodo linuxusers  10782672 Dec 29 23:42 fort.95.pe012
-rw-r--r-- 1 fbodo linuxusers  10782672 Dec 29 23:42 fort.95.pe013
-rw-r--r-- 1 fbodo linuxusers  10782672 Dec 29 23:42 fort.95.pe014
-rw-r--r-- 1 fbodo linuxusers  10782672 Dec 29 23:42 fort.95.pe015
-rw-r--r-- 1 fbodo linuxusers  10782672 Dec 29 23:42 fort.95.pe016
-rw-r--r-- 1 fbodo linuxusers  10782672 Dec 29 23:42 fort.95.pe017
-rw-r--r-- 1 fbodo linuxusers  10782672 Dec 29 23:42 fort.95.pe018
-rw-r--r-- 1 fbodo linuxusers  10782672 Dec 29 23:42 fort.95.pe019
-rw-r--r-- 1 fbodo linuxusers  10782672 Dec 29 23:42 fort.95.pe020
-rw-r--r-- 1 fbodo linuxusers  10782672 Dec 29 23:42 fort.95.pe021
-rw-r--r-- 1 fbodo linuxusers  10782672 Dec 29 23:42 fort.95.pe022
-rw-r--r-- 1 fbodo linuxusers  10782672 Dec 29 23:42 fort.95.pe023
-rw-r--r-- 1 fbodo linuxusers  10782672 Dec 29 23:42 fort.95.pe024
-rw-r--r-- 1 fbodo linuxusers  10782672 Dec 29 23:42 fort.95.pe025
-rw-r--r-- 1 fbodo linuxusers  10782672 Dec 29 23:42 fort.95.pe026
-rw-r--r-- 1 fbodo linuxusers  10782672 Dec 29 23:42 fort.95.pe027
-rw-r--r-- 1 fbodo linuxusers  10782672 Dec 29 23:42 fort.95.pe028
-rw-r--r-- 1 fbodo linuxusers  10782672 Dec 29 23:42 fort.95.pe029
-rw-r--r-- 1 fbodo linuxusers  10782672 Dec 29 23:42 fort.95.pe030
-rw-r--r-- 1 fbodo linuxusers  10782672 Dec 29 23:42 fort.95.pe031
-rw-r--r-- 1 fbodo linuxusers  10782672 Dec 29 23:42 fort.95.pe032
-rw-r--r-- 1 fbodo linuxusers  10782672 Dec 29 23:42 fort.95.pe033
-rw-r--r-- 1 fbodo linuxusers  10782672 Dec 29 23:42 fort.95.pe034
-rw-r--r-- 1 fbodo linuxusers  10782672 Dec 29 23:42 fort.95.pe035
-rw-r--r-- 1 fbodo linuxusers  10782672 Dec 29 23:42 fort.95.pe036
-rw-r--r-- 1 fbodo linuxusers  10782672 Dec 29 23:42 fort.95.pe037
-rw-r--r-- 1 fbodo linuxusers  10782672 Dec 29 23:42 fort.95.pe038
-rw-r--r-- 1 fbodo linuxusers  10782672 Dec 29 23:42 fort.95.pe039
-rw-r--r-- 1 fbodo linuxusers  10782672 Dec 29 23:42 fort.95.pe040
-rw-r--r-- 1 fbodo linuxusers  10782672 Dec 29 23:42 fort.95.pe041
-rw-r--r-- 1 fbodo linuxusers  10782672 Dec 29 23:42 fort.95.pe042
-rw-r--r-- 1 fbodo linuxusers  10782672 Dec 29 23:42 fort.95.pe043
-rw-r--r-- 1 fbodo linuxusers  10782672 Dec 29 23:42 fort.95.pe044
-rw-r--r-- 1 fbodo linuxusers  10782672 Dec 29 23:42 fort.95.pe045
-rw-r--r-- 1 fbodo linuxusers  10782672 Dec 29 23:42 fort.95.pe046
-rw-r--r-- 1 fbodo linuxusers  10782672 Dec 29 23:42 fort.95.pe047
-rw-r--r-- 1 fbodo linuxusers  10782672 Dec 29 23:42 fort.95.pe048
-rw-r--r-- 1 fbodo linuxusers  10782672 Dec 29 23:42 fort.95.pe049
-rw-r--r-- 1 fbodo linuxusers  10782672 Dec 29 23:42 fort.95.pe050
-rw-r--r-- 1 fbodo linuxusers  10782672 Dec 29 23:42 fort.95.pe051
-rw-r--r-- 1 fbodo linuxusers  10782672 Dec 29 23:42 fort.95.pe052
-rw-r--r-- 1 fbodo linuxusers  10782672 Dec 29 23:42 fort.95.pe053
-rw-r--r-- 1 fbodo linuxusers  10782672 Dec 29 23:42 fort.95.pe054
-rw-r--r-- 1 fbodo linuxusers  10782672 Dec 29 23:42 fort.95.pe055
-rw-r--r-- 1 fbodo linuxusers  10782672 Dec 29 23:42 fort.95.pe056
-rw-r--r-- 1 fbodo linuxusers  10782672 Dec 29 23:42 fort.95.pe057
-rw-r--r-- 1 fbodo linuxusers  10782672 Dec 29 23:42 fort.95.pe058
-rw-r--r-- 1 fbodo linuxusers  10782672 Dec 29 23:42 fort.95.pe059
-rw-r--r-- 1 fbodo linuxusers  10782672 Dec 29 23:42 fort.95.pe060
-rw-r--r-- 1 fbodo linuxusers  10782672 Dec 29 23:42 fort.95.pe061
-rw-r--r-- 1 fbodo linuxusers  10782672 Dec 29 23:42 fort.95.pe062
-rw-r--r-- 1 fbodo linuxusers  10782672 Dec 29 23:42 fort.95.pe063
-rw-r--r-- 1 fbodo linuxusers  10782672 Dec 29 23:42 fort.95.pe064
-rw-r--r-- 1 fbodo linuxusers  10782672 Dec 29 23:42 fort.95.pe065
-rw-r--r-- 1 fbodo linuxusers  10782672 Dec 29 23:42 fort.95.pe066
-rw-r--r-- 1 fbodo linuxusers  10782672 Dec 29 23:42 fort.95.pe067
-rw-r--r-- 1 fbodo linuxusers  10782672 Dec 29 23:42 fort.95.pe068
-rw-r--r-- 1 fbodo linuxusers  10782672 Dec 29 23:42 fort.95.pe069
-rw-r--r-- 1 fbodo linuxusers  10782672 Dec 29 23:42 fort.95.pe070
-rw-r--r-- 1 fbodo linuxusers  10782672 Dec 29 23:42 fort.95.pe071
-rw-r--r-- 1 fbodo linuxusers  10782672 Dec 29 23:42 fort.95.pe072
-rw-r--r-- 1 fbodo linuxusers  10782672 Dec 29 23:42 fort.95.pe073
-rw-r--r-- 1 fbodo linuxusers  10782672 Dec 29 23:42 fort.95.pe074
-rw-r--r-- 1 fbodo linuxusers  10782672 Dec 29 23:42 fort.95.pe075
-rw-r--r-- 1 fbodo linuxusers  10782672 Dec 29 23:42 fort.95.pe076
-rw-r--r-- 1 fbodo linuxusers  10782672 Dec 29 23:42 fort.95.pe077
-rw-r--r-- 1 fbodo linuxusers  10782672 Dec 29 23:42 fort.95.pe078
-rw-r--r-- 1 fbodo linuxusers  10782672 Dec 29 23:42 fort.95.pe079
-rw-r--r-- 1 fbodo linuxusers  10782672 Dec 29 23:42 fort.95.pe080
-rw-r--r-- 1 fbodo linuxusers  10782672 Dec 29 23:42 fort.95.pe081
-rw-r--r-- 1 fbodo linuxusers  10782672 Dec 29 23:42 fort.95.pe082
-rw-r--r-- 1 fbodo linuxusers  10782672 Dec 29 23:42 fort.95.pe083
-rw-r--r-- 1 fbodo linuxusers  10782672 Dec 29 23:42 fort.95.pe084
-rw-r--r-- 1 fbodo linuxusers  10782672 Dec 29 23:42 fort.95.pe085
-rw-r--r-- 1 fbodo linuxusers  10782672 Dec 29 23:42 fort.95.pe086
-rw-r--r-- 1 fbodo linuxusers  10782672 Dec 29 23:42 fort.95.pe087
-rw-r--r-- 1 fbodo linuxusers  10782672 Dec 29 23:42 fort.95.pe088
-rw-r--r-- 1 fbodo linuxusers  10782672 Dec 29 23:42 fort.95.pe089
-rw-r--r-- 1 fbodo linuxusers  10782672 Dec 29 23:42 fort.95.pe090
-rw-r--r-- 1 fbodo linuxusers  10782672 Dec 29 23:42 fort.95.pe091
-rw-r--r-- 1 fbodo linuxusers  10782672 Dec 29 23:42 fort.95.pe092
-rw-r--r-- 1 fbodo linuxusers  10782672 Dec 29 23:42 fort.95.pe093
-rw-r--r-- 1 fbodo linuxusers  10782672 Dec 29 23:42 fort.95.pe094
-rw-r--r-- 1 fbodo linuxusers  10782672 Dec 29 23:42 fort.95.pe095
-rw-r--r-- 1 fbodo linuxusers  10782672 Dec 29 23:42 fort.95.pe096
-rw-r--r-- 1 fbodo linuxusers  10782672 Dec 29 23:42 fort.95.pe097
-rw-r--r-- 1 fbodo linuxusers  10782672 Dec 29 23:42 fort.95.pe098
-rw-r--r-- 1 fbodo linuxusers  10782672 Dec 29 23:42 fort.95.pe099
-rw-r--r-- 1 fbodo linuxusers  10782672 Dec 29 23:42 fort.95.pe100
-rw-r--r-- 1 fbodo linuxusers  10782672 Dec 29 23:42 fort.95.pe101
-rw-r--r-- 1 fbodo linuxusers  10782672 Dec 29 23:42 fort.95.pe102
-rw-r--r-- 1 fbodo linuxusers  10782672 Dec 29 23:42 fort.95.pe103
-rw-r--r-- 1 fbodo linuxusers  10782672 Dec 29 23:42 fort.95.pe104
-rw-r--r-- 1 fbodo linuxusers  10782672 Dec 29 23:42 fort.95.pe105
-rw-r--r-- 1 fbodo linuxusers  10782672 Dec 29 23:42 fort.95.pe106
-rw-r--r-- 1 fbodo linuxusers  10782672 Dec 29 23:42 fort.95.pe107
-rw-r--r-- 1 fbodo linuxusers  10782672 Dec 29 23:42 fort.95.pe108
-rw-r--r-- 1 fbodo linuxusers  10782672 Dec 29 23:42 fort.95.pe109
-rw-r--r-- 1 fbodo linuxusers  10782672 Dec 29 23:42 fort.95.pe110
-rw-r--r-- 1 fbodo linuxusers  10782672 Dec 29 23:42 fort.95.pe111
-rw-r--r-- 1 fbodo linuxusers  10782672 Dec 29 23:42 fort.95.pe112
-rw-r--r-- 1 fbodo linuxusers  10782672 Dec 29 23:42 fort.95.pe113
-rw-r--r-- 1 fbodo linuxusers  10782672 Dec 29 23:42 fort.95.pe114
-rw-r--r-- 1 fbodo linuxusers  10782672 Dec 29 23:42 fort.95.pe115
-rw-r--r-- 1 fbodo linuxusers  10782672 Dec 29 23:42 fort.95.pe116
-rw-r--r-- 1 fbodo linuxusers  10782672 Dec 29 23:42 fort.95.pe117
-rw-r--r-- 1 fbodo linuxusers  10782672 Dec 29 23:42 fort.95.pe118
-rw-r--r-- 1 fbodo linuxusers  10782672 Dec 29 23:42 fort.95.pe119
-rw-r--r-- 1 fbodo linuxusers  10782672 Dec 29 23:42 fort.95.pe120
-rw-r--r-- 1 fbodo linuxusers  10782672 Dec 29 23:42 fort.95.pe121
-rw-r--r-- 1 fbodo linuxusers  10782672 Dec 29 23:42 fort.95.pe122
-rw-r--r-- 1 fbodo linuxusers  10782672 Dec 29 23:42 fort.95.pe123
-rw-r--r-- 1 fbodo linuxusers  10782672 Dec 29 23:42 fort.95.pe124
-rw-r--r-- 1 fbodo linuxusers  10782672 Dec 29 23:42 fort.95.pe125
-rw-r--r-- 1 fbodo linuxusers  10782672 Dec 29 23:42 fort.95.pe126
-rw-r--r-- 1 fbodo linuxusers  10782672 Dec 29 23:42 fort.95.pe127
-rw-r--r-- 1 fbodo linuxusers  41405384 Dec 29 23:50 fort.98
-rw-r--r-- 1 fbodo linuxusers     69042 Dec 29 23:50 HESSOPT.DAT
-rw-r----- 1 fbodo linuxusers      1403 Dec 29 10:28 INPUT
-rw-r--r-- 1 fbodo linuxusers      3122 Dec 29 10:57 optc001
-rw-r--r-- 1 fbodo linuxusers      3122 Dec 29 11:22 optc002
-rw-r--r-- 1 fbodo linuxusers      3122 Dec 29 11:46 optc003
-rw-r--r-- 1 fbodo linuxusers      3122 Dec 29 12:13 optc004
-rw-r--r-- 1 fbodo linuxusers      3122 Dec 29 12:39 optc005
-rw-r--r-- 1 fbodo linuxusers      3122 Dec 29 13:04 optc006
-rw-r--r-- 1 fbodo linuxusers      3122 Dec 29 13:30 optc007
-rw-r--r-- 1 fbodo linuxusers      3122 Dec 29 13:56 optc008
-rw-r--r-- 1 fbodo linuxusers      3122 Dec 29 14:14 optc009
-rw-r--r-- 1 fbodo linuxusers      3122 Dec 29 14:39 optc010
-rw-r--r-- 1 fbodo linuxusers      3122 Dec 29 15:02 optc011
-rw-r--r-- 1 fbodo linuxusers      3122 Dec 29 15:23 optc012
-rw-r--r-- 1 fbodo linuxusers      3122 Dec 29 15:50 optc013
-rw-r--r-- 1 fbodo linuxusers      3122 Dec 29 16:12 optc014
-rw-r--r-- 1 fbodo linuxusers      3122 Dec 29 16:37 optc015
-rw-r--r-- 1 fbodo linuxusers      3122 Dec 29 17:01 optc016
-rw-r--r-- 1 fbodo linuxusers      3122 Dec 29 17:27 optc017
-rw-r--r-- 1 fbodo linuxusers      3122 Dec 29 17:54 optc018
-rw-r--r-- 1 fbodo linuxusers      3122 Dec 29 18:13 optc019
-rw-r--r-- 1 fbodo linuxusers      3122 Dec 29 18:39 optc020
-rw-r--r-- 1 fbodo linuxusers      3122 Dec 29 19:05 optc021
-rw-r--r-- 1 fbodo linuxusers      3122 Dec 29 19:26 optc022
-rw-r--r-- 1 fbodo linuxusers      3122 Dec 29 19:52 optc023
-rw-r--r-- 1 fbodo linuxusers      3122 Dec 29 20:18 optc024
-rw-r--r-- 1 fbodo linuxusers      3122 Dec 29 20:42 optc025
-rw-r--r-- 1 fbodo linuxusers      3122 Dec 29 21:05 optc026
-rw-r--r-- 1 fbodo linuxusers      3122 Dec 29 21:29 optc027
-rw-r--r-- 1 fbodo linuxusers      3122 Dec 29 21:53 optc028
-rw-r--r-- 1 fbodo linuxusers      3122 Dec 29 22:16 optc029
-rw-r--r-- 1 fbodo linuxusers      3122 Dec 29 22:37 optc030
-rw-r--r-- 1 fbodo linuxusers      3122 Dec 29 22:58 optc031
-rw-r--r-- 1 fbodo linuxusers      3122 Dec 29 23:15 optc032
-rw-r--r-- 1 fbodo linuxusers      3122 Dec 29 23:34 optc033
-rw-r--r-- 1 fbodo linuxusers      3122 Dec 29 23:50 optc034
-rw-r----- 1 fbodo linuxusers  84805704 Dec 29 23:50 OPTINFO.DAT
-rwxr-xr-x 1 fbodo linuxusers 112779232 Dec 29 10:28 Pcrystal
lrwxrwxrwx 1 fbodo linuxusers        85 Dec 29 10:28 SCFOUT.LOG -> /users/fbodo/Application/fbodo/Fili/Mg(IO3)2/P21/MgIO32_p21_OPT_exp_pbe0d3_10GPa.out2
================================================================================
Copying output file back on run directory...
================================================================================
Removing temporary directory /lustre/scratch/client/users/fbodo/prova/tmp_p3227072 from each node...
Job terminated
