nproc:128
Pcrystal executable in: /users/fbodo/SVN_PUB_NEW/bin/Linux-gfortran_new/std/Pcrystal
Master system: Linux c009 5.15.0-47-generic #51-Ubuntu SMP Thu Aug 11 07:51:15 UTC 2022 x86_64 x86_64 x86_64 GNU/Linux
ls -ltr $BINDIR
total 420340
-rwxr-xr-x 1 fbodo linuxusers 101580248 Oct 28 17:33 properties
-rwxr-xr-x 1 fbodo linuxusers 101643032 Oct 28 17:33 Pproperties
-rwxr-xr-x 1 fbodo linuxusers 112779232 Oct 28 17:33 Pcrystal
-rwxr-xr-x 1 fbodo linuxusers 112716416 Oct 28 17:33 crystal
================================================================================
Module loading in /lustre/scratch/client/users/fbodo/prova/tmp_p3151836
================================================================================
Loading gcc and openmpi modules ...
1) # module load gcc/11.2.0
2) # module load openmpi/4.1.6-a4ksrza
================================================================================
Starting Pcrystal SLURM job
================================================================================
Time: Sat Dec 28 11:53:52 AM CST 2024
SLURM job ID: 17005949
Master hostname: c009
User: fbodo
Input file: MgIO32_p21_OPT_exp_pbe0d3_9GPa.d12
Output file: MgIO32_p21_OPT_exp_pbe0d3_9GPa.out
Number of processors: 128
Nodes list: c009
================================================================================
Creating temporary directory /lustre/scratch/client/users/fbodo/prova/tmp_p3151836 on each node...
Copying input file MgIO32_p21_OPT_exp_pbe0d3_9GPa.d12 on each node...
Copying Pcrystal on each node...
================================================================================
Contents of input file
================================================================================
Mg(IO3)2 P21
CRYSTAL
0 0 0
4
11.04465373     4.13741847    11.07431529  119.987407
18
12    -4.949322087213E-01  4.335752990042E-01  2.527940509694E-01
12    -5.058421749646E-03 -6.631201092501E-02  2.472021160672E-01
53     1.662439279183E-01  4.503671359023E-01  8.915256459419E-02
53     3.337573947270E-01 -4.964058926631E-02  4.108525718625E-01
53    -1.666491579139E-01 -4.875833449487E-02  4.237749707929E-01
53    -3.333470394245E-01  4.512567089163E-01  7.623080842423E-02
 8     3.256745552330E-01 -3.139483441932E-01  1.250278840134E-01
 8     5.076868969040E-02 -3.057197364991E-01 -6.937486722667E-02
 8     1.350832948547E-01 -2.864042526163E-01  2.067860254595E-01
 8     3.648945485329E-01  2.136415108824E-01  2.932152710650E-01
 8     1.743274915001E-01  1.860460344332E-01  3.749870872102E-01
 8     4.492376629783E-01  1.942470191847E-01 -4.306148864482E-01
 8    -3.150842490261E-01  2.096034391374E-01  3.989940417679E-01
 8    -3.423726957455E-02  1.937780802494E-01 -4.263064213251E-01
 8    -1.381056230423E-01  1.759255924741E-01  2.940730794589E-01
 8    -3.619036205166E-01 -3.240790456856E-01  2.059302451293E-01
 8    -1.849108505510E-01 -2.903801120442E-01  1.010289650526E-01
 8    -4.657574145752E-01 -3.061983944595E-01 -7.368490095133E-02
OPTGEOM
EXTPRESS
0.0003059039462
END
BASISSET
POB-TZVP-REV2
DFT
PBE0-D3
HUGEGRID
END
TOLINTEG
9 9 9 9 27
TOLDEE
9
SHRINK
6 6
END
================================================================================
Time: Sat Dec 28 11:53:52 AM CST 2024
Starting Pcrystal job in /lustre/scratch/client/users/fbodo/prova/tmp_p3151836 on each node...
================================================================================

command /hpc/m3/spack/opt/spack/linux-ubuntu22.04-zen3/gcc-11.2.0/openmpi-4.1.6-a4ksrzarq4qdqcx545m6o47ytlwsgqyk/bin/mpirun -np 128 Pcrystal < /lustre/scratch/client/users/fbodo/prova/tmp_p3151836/INPUT
/hpc/m3/spack/opt/spack/linux-ubuntu22.04-zen3/gcc-11.2.0/openmpi-4.1.6-a4ksrzarq4qdqcx545m6o47ytlwsgqyk/bin/mpirun
         128 PROCESSORS WORKING

         
 *******************************************************************************
 *                                                                             *
 *                               CRYSTAL23                                     *
 *                      public : 1.0.1 - October 2022                          *
 *                       HTTP://WWW.CRYSTAL.UNITO.IT                           *
 *                                                                             *
 *                              MAIN AUTHORS                                   *
 *                                                                             *
 *  R. DOVESI(1,11), V.R. SAUNDERS(2), C. ROETTI(1,11), R. ORLANDO(1,11),      *
 *  C.M. ZICOVICH-WILSON(1,3), F. PASCALE(4), B. CIVALLERI(1,11),              *
 *  K. DOLL(5), N.M. HARRISON(6), I.J. BUSH(7), Ph. D'ARCO(8),                 *
 *  M. LLUNELL(9), M. CAUSA'(10), Y. NOEL(8), L. MASCHIO(1,11), A. ERBA(1,11)  *
 *  M. RE'RAT(14), S. CASASSA(1,11), B.G. SEARLE(2), J.K. DESMARAIS(1)         *
 *                                                                             *
 *        CONTRIBUTIONS TO THE CODE HAVE ALSO BEEN GIVEN BY                    *
 *                                                                             *
 *  M. FERRABONE(1,11), M. DE LA PIERRE(1,11), M. FERRERO(1,11),               *
 *  J. BAIMA(1,11), E. ALBANESE(1,11), M.F. PEINTINGER(12), R. BAST(13),       *
 *  B. KIRTMAN(15), V. LACIVITA(1,11), R. DEMICHELIS(1,16)                     *
 *  G. BRANDEBURG(17), S. SALUSTRO(1,11), G. SANSONE(1,11)                     *
 *  M.T. RUGGIERO(18), L.E. DAGA(1), L. DONA'(1), A. COSSARD(1)                *
 *                                                                             *
 * (1) THEORETICAL CHEMISTRY GROUP - UNIVERSITA' DI TORINO - TORINO (ITALY)    *
 * (2) SCIENTIFIC COMPUTING DEPARTMENT - STFC DARESBURY (UK)                   *
 * (3) UNIVERSIDAD AUTONOMA DEL ESTADO DE MORELOS - CUERNAVACA (MEXICO)        *
 * (4) UNIVERSITE' DE LORRAINE - NANCY (FRANCE)                                *
 * (5) UNIVERSITAET STUTTGART- STUTTGART (GERMANY)                             *
 * (6) IMPERIAL COLLEGE - LONDON (UK)                                          *
 * (7) SCIENTIFIC COMPUTING DEPARTMENT - STFC RAL (UK)                         *
 * (8) UPMC - SORBONNE UNIVERSITES - PARIS (FRANCE)                            *
 * (9) UNIVERSIDAD DE BARCELONA - BARCELONA (SPAIN)                            *
 *(10) UNIVERSITA' DI NAPOLI "FEDERICO II" - NAPOLI (ITALY)                    *
 *(11) NIS - NANOSTRUCTURED INTERFACES AND SURFACES - TORINO (ITALY)           *
 *(12) MPI FUER CHEMISCHE ENERGIEKONVERSION - MUELHEIM AN DER RUHR (GERMANY)   *
 *(13) UNIVERSITY OF TROMSO - TROMSO (NORWAY)                                  *
 *(14) UNIVERSITE' DE PAU ET DES PAYS DE L'ADOUR - PAU (FRANCE)                *
 *(15) UNIVERSITY OF CALIFORNIA SANTA BARBARA - SANTA BARBARA (USA)            *
 *(16) CURTIN UNIVERSITY - PERTH (AUSTRALIA)                                   *
 *(17) UNIVERSITY COLLEGE LONDON - LONDON (UK)                                 *
 *(18) UNIVERSITY OF VERMONT - BURLINGTON (USA)                                *
 *                                                                             *
 *******************************************************************************
 EEEEEEEEEE STARTING  DATE 28 12 2024 TIME 11:53:55.5
 Mg(IO3)2 P21                                                                    

 CRYSTAL CALCULATION
 (INPUT ACCORDING TO THE INTERNATIONAL TABLES FOR X-RAY CRYSTALLOGRAPHY)
 CRYSTAL FAMILY                       :  MONOCLINIC  
 CRYSTAL CLASS  (GROTH - 1921)        :  MONOCLINIC SPHENOIDAL                

 SPACE GROUP (NONCENTROSYMMETRIC)     :  P 21            

 LATTICE PARAMETERS  (ANGSTROMS AND DEGREES) - CONVENTIONAL CELL
        A           B           C        ALPHA        BETA       GAMMA
    11.04465     4.13742    11.07432    90.00000   119.98741    90.00000


 NUMBER OF IRREDUCIBLE ATOMS IN THE CONVENTIONAL CELL:   18

 INPUT COORDINATES

 ATOM AT. N.              COORDINATES
   1  12    -4.949322087213E-01  4.335752990042E-01  2.527940509694E-01
   2  12    -5.058421749646E-03 -6.631201092501E-02  2.472021160672E-01
   3  53     1.662439279183E-01  4.503671359023E-01  8.915256459419E-02
   4  53     3.337573947270E-01 -4.964058926631E-02  4.108525718625E-01
   5  53    -1.666491579139E-01 -4.875833449487E-02  4.237749707929E-01
   6  53    -3.333470394245E-01  4.512567089163E-01  7.623080842423E-02
   7   8     3.256745552330E-01 -3.139483441932E-01  1.250278840134E-01
   8   8     5.076868969040E-02 -3.057197364991E-01 -6.937486722667E-02
   9   8     1.350832948547E-01 -2.864042526163E-01  2.067860254595E-01
  10   8     3.648945485329E-01  2.136415108824E-01  2.932152710650E-01
  11   8     1.743274915001E-01  1.860460344332E-01  3.749870872102E-01
  12   8     4.492376629783E-01  1.942470191847E-01 -4.306148864482E-01
  13   8    -3.150842490261E-01  2.096034391374E-01  3.989940417679E-01
  14   8    -3.423726957455E-02  1.937780802494E-01 -4.263064213251E-01
  15   8    -1.381056230423E-01  1.759255924741E-01  2.940730794589E-01
  16   8    -3.619036205166E-01 -3.240790456856E-01  2.059302451293E-01
  17   8    -1.849108505510E-01 -2.903801120442E-01  1.010289650526E-01
  18   8    -4.657574145752E-01 -3.061983944595E-01 -7.368490095133E-02

 *******************************************************************************

 << INFORMATION >>: FROM NOW ON, ALL COORDINATES REFER TO THE PRIMITIVE CELL

 *******************************************************************************

 LATTICE PARAMETERS  (ANGSTROMS AND DEGREES) - PRIMITIVE CELL
       A          B          C        ALPHA      BETA     GAMMA        VOLUME
   11.04465    4.13742   11.07432    90.00000 119.98741  90.00000    438.312812

 COORDINATES OF THE EQUIVALENT ATOMS (FRACTIONAL UNITS)

 N. ATOM EQUIV AT. N.          X                  Y                  Z

   1   1   1   12 MG   -4.94932208721E-01  4.33575299004E-01  2.52794050969E-01
   2   1   2   12 MG    4.94932208721E-01 -6.64247009958E-02 -2.52794050969E-01

   3   2   1   12 MG   -5.05842174965E-03 -6.63120109250E-02  2.47202116067E-01
   4   2   2   12 MG    5.05842174965E-03  4.33687989075E-01 -2.47202116067E-01

   5   3   1   53 I     1.66243927918E-01  4.50367135902E-01  8.91525645942E-02
   6   3   2   53 I    -1.66243927918E-01 -4.96328640977E-02 -8.91525645942E-02

   7   4   1   53 I     3.33757394727E-01 -4.96405892663E-02  4.10852571863E-01
   8   4   2   53 I    -3.33757394727E-01  4.50359410734E-01 -4.10852571863E-01

   9   5   1   53 I    -1.66649157914E-01 -4.87583344949E-02  4.23774970793E-01
  10   5   2   53 I     1.66649157914E-01  4.51241665505E-01 -4.23774970793E-01

  11   6   1   53 I    -3.33347039425E-01  4.51256708916E-01  7.62308084242E-02
  12   6   2   53 I     3.33347039425E-01 -4.87432910837E-02 -7.62308084242E-02

  13   7   1    8 O     3.25674555233E-01 -3.13948344193E-01  1.25027884013E-01
  14   7   2    8 O    -3.25674555233E-01  1.86051655807E-01 -1.25027884013E-01

  15   8   1    8 O     5.07686896904E-02 -3.05719736499E-01 -6.93748672267E-02
  16   8   2    8 O    -5.07686896904E-02  1.94280263501E-01  6.93748672267E-02

  17   9   1    8 O     1.35083294855E-01 -2.86404252616E-01  2.06786025460E-01
  18   9   2    8 O    -1.35083294855E-01  2.13595747384E-01 -2.06786025460E-01

  19  10   1    8 O     3.64894548533E-01  2.13641510882E-01  2.93215271065E-01
  20  10   2    8 O    -3.64894548533E-01 -2.86358489118E-01 -2.93215271065E-01

  21  11   1    8 O     1.74327491500E-01  1.86046034433E-01  3.74987087210E-01
  22  11   2    8 O    -1.74327491500E-01 -3.13953965567E-01 -3.74987087210E-01

  23  12   1    8 O     4.49237662978E-01  1.94247019185E-01 -4.30614886448E-01
  24  12   2    8 O    -4.49237662978E-01 -3.05752980815E-01  4.30614886448E-01

  25  13   1    8 O    -3.15084249026E-01  2.09603439137E-01  3.98994041768E-01
  26  13   2    8 O     3.15084249026E-01 -2.90396560863E-01 -3.98994041768E-01

  27  14   1    8 O    -3.42372695745E-02  1.93778080249E-01 -4.26306421325E-01
  28  14   2    8 O     3.42372695745E-02 -3.06221919751E-01  4.26306421325E-01

  29  15   1    8 O    -1.38105623042E-01  1.75925592474E-01  2.94073079459E-01
  30  15   2    8 O     1.38105623042E-01 -3.24074407526E-01 -2.94073079459E-01

  31  16   1    8 O    -3.61903620517E-01 -3.24079045686E-01  2.05930245129E-01
  32  16   2    8 O     3.61903620517E-01  1.75920954314E-01 -2.05930245129E-01

  33  17   1    8 O    -1.84910850551E-01 -2.90380112044E-01  1.01028965053E-01
  34  17   2    8 O     1.84910850551E-01  2.09619887956E-01 -1.01028965053E-01

  35  18   1    8 O    -4.65757414575E-01 -3.06198394459E-01 -7.36849009513E-02
  36  18   2    8 O     4.65757414575E-01  1.93801605541E-01  7.36849009513E-02

 NUMBER OF SYMMETRY OPERATORS         :    2
 *******************************************************************************
 * GEOMETRY EDITING - INPUT COORDINATES ARE GIVEN IN ANGSTROM         
 *******************************************************************************

 GEOMETRY NOW FULLY CONSISTENT WITH THE GROUP
 INFORMATION **** NEW DEFAULT **** FINALRUN 4 FOR GEOMETRY OPTIMIZATIONS
 INFORMATION **** NEW DEFAULT **** OPTGEOM OPTIMIZES BOTH ATOMIC COORDINATES AND CELL PARAMETERS
 INFORMATION **** NEW DEFAULT **** TOL. ON ATOMIC DISP TO REDEFINE REF. GEOMETRY: 0.8 Angs
 INFORMATION **** NEW DEFAULT **** N POINTS TO REDEFINE REF. GEOMETRY: N OF OPT DEGS OF FREEDOM
 INFORMATION **** NEW DEFAULT **** TOL. ON ENERGY TO REDEFINE REF. GEOMETRY: 10**-3*(5*N. ATOMS)

 EXTERNAL STRESS APPLIED (HARTREE/BOHR^3):
 (1 HARTREE/BOHR^3 = 29421 GIGAPASCAL)
 EXTERNAL STRESS
 ORDER:   11   12    13 
          21   22    23 
          31   32    33 
  0.3059039E-03  0.0000000E+00  0.0000000E+00
  0.0000000E+00  0.3059039E-03  0.0000000E+00
  0.0000000E+00  0.0000000E+00  0.3059039E-03


 IMPORTANT INFORMATION:
 THE COORDINATE SYSTEM ADOPTED IN THE OPTIMIZATION IS NOT IN
 GENERAL HOMOGENEOUS UNITS. FOR THIS REASON THE GRADIENT AND 
 HESSIAN MATRIX IN TERMS OF THIS SYSTEM ARE GIVEN WITHOUT
 UNITS. FOR MORE DETAILS SEE THE MANUAL.

 *******************************************************************************
 COMBINED CELL/ATOM OPTIMIZATION CONTROL

 MAXIMUM GRADIENT COMPONENT   0.00045 MAXIMUM DISPLACEMENT COMPONENT     0.00180
 R.M.S. OF GRADIENT COMPONENT 0.00030 R.M.S. OF DISPLACEMENT COMPONENTS  0.00120
 THRESHOLD ON ENERGY CHANGE 0.100E-06 EXTRAPOLATING POLYNOMIAL ORDER           2
 MAXIMUM ALLOWED NUMBER OF STEPS   -1 SORTING OF ENERGY POINTS:               NO
 ANALYTICAL  GRADIENT                 HESSIAN UPDATING                      BFGS
 STEP SIZE NUMERICAL GRADIENT 0.00100
 INITIAL HESSIAN MATRIX: SCHLEGEL MODEL 2
 *******************************************************************************


 GCALCO - MAX INDICES DIRECT LATTICE VECTOR    11    25    11
 NO.OF VECTORS CREATED 6999 STARS 1821 RMAX   170.19346 BOHR

 GEOMETRY FOR WAVE FUNCTION - DIMENSIONALITY OF THE SYSTEM    3
 (NON PERIODIC DIRECTION: LATTICE PARAMETER FORMALLY SET TO 500)
 *******************************************************************************
 LATTICE PARAMETERS (ANGSTROMS AND DEGREES) - BOHR = 0.5291772083 ANGSTROM
 PRIMITIVE CELL - CENTRING CODE 1/0 VOLUME=   438.312812 - DENSITY  5.664 g/cm^3
         A              B              C           ALPHA      BETA       GAMMA 
    11.04465373     4.13741847    11.07431529    90.000000 119.987407  90.000000
 *******************************************************************************
 ATOMS IN THE ASYMMETRIC UNIT   18 - ATOMS IN THE UNIT CELL:   36
     ATOM                 X/A                 Y/B                 Z/C    
 *******************************************************************************
      1 T  12 MG   -4.949322087213E-01  4.335752990042E-01  2.527940509694E-01
      2 F  12 MG    4.949322087213E-01 -6.642470099580E-02 -2.527940509694E-01
      3 T  12 MG   -5.058421749646E-03 -6.631201092501E-02  2.472021160672E-01
      4 F  12 MG    5.058421749646E-03  4.336879890750E-01 -2.472021160672E-01
      5 T  53 I     1.662439279183E-01  4.503671359023E-01  8.915256459419E-02
      6 F  53 I    -1.662439279183E-01 -4.963286409770E-02 -8.915256459419E-02
      7 T  53 I     3.337573947270E-01 -4.964058926631E-02  4.108525718625E-01
      8 F  53 I    -3.337573947270E-01  4.503594107337E-01 -4.108525718625E-01
      9 T  53 I    -1.666491579139E-01 -4.875833449487E-02  4.237749707929E-01
     10 F  53 I     1.666491579139E-01  4.512416655051E-01 -4.237749707929E-01
     11 T  53 I    -3.333470394245E-01  4.512567089163E-01  7.623080842423E-02
     12 F  53 I     3.333470394245E-01 -4.874329108370E-02 -7.623080842423E-02
     13 T   8 O     3.256745552330E-01 -3.139483441932E-01  1.250278840134E-01
     14 F   8 O    -3.256745552330E-01  1.860516558068E-01 -1.250278840134E-01
     15 T   8 O     5.076868969040E-02 -3.057197364991E-01 -6.937486722667E-02
     16 F   8 O    -5.076868969040E-02  1.942802635009E-01  6.937486722667E-02
     17 T   8 O     1.350832948547E-01 -2.864042526163E-01  2.067860254595E-01
     18 F   8 O    -1.350832948547E-01  2.135957473837E-01 -2.067860254595E-01
     19 T   8 O     3.648945485329E-01  2.136415108824E-01  2.932152710650E-01
     20 F   8 O    -3.648945485329E-01 -2.863584891176E-01 -2.932152710650E-01
     21 T   8 O     1.743274915001E-01  1.860460344332E-01  3.749870872102E-01
     22 F   8 O    -1.743274915001E-01 -3.139539655668E-01 -3.749870872102E-01
     23 T   8 O     4.492376629783E-01  1.942470191847E-01 -4.306148864482E-01
     24 F   8 O    -4.492376629783E-01 -3.057529808153E-01  4.306148864482E-01
     25 T   8 O    -3.150842490261E-01  2.096034391374E-01  3.989940417679E-01
     26 F   8 O     3.150842490261E-01 -2.903965608626E-01 -3.989940417679E-01
     27 T   8 O    -3.423726957455E-02  1.937780802494E-01 -4.263064213251E-01
     28 F   8 O     3.423726957455E-02 -3.062219197506E-01  4.263064213251E-01
     29 T   8 O    -1.381056230423E-01  1.759255924741E-01  2.940730794589E-01
     30 F   8 O     1.381056230423E-01 -3.240744075259E-01 -2.940730794589E-01
     31 T   8 O    -3.619036205166E-01 -3.240790456856E-01  2.059302451293E-01
     32 F   8 O     3.619036205166E-01  1.759209543144E-01 -2.059302451293E-01
     33 T   8 O    -1.849108505510E-01 -2.903801120442E-01  1.010289650526E-01
     34 F   8 O     1.849108505510E-01  2.096198879558E-01 -1.010289650526E-01
     35 T   8 O    -4.657574145752E-01 -3.061983944595E-01 -7.368490095133E-02
     36 F   8 O     4.657574145752E-01  1.938016055405E-01  7.368490095133E-02

 T = ATOM BELONGING TO THE ASYMMETRIC UNIT

 ****    2 SYMMOPS - TRANSLATORS IN FRACTIONAL UNITS
 **** MATRICES AND TRANSLATORS IN THE CRYSTALLOGRAPHIC REFERENCE FRAME
   V INV                    ROTATION MATRICES                   TRANSLATORS
   1   1  1.00  0.00  0.00  0.00  1.00  0.00  0.00  0.00  1.00  0.00  0.00  0.00
   2   2 -1.00  0.00 -0.00 -0.00  1.00 -0.00  0.00  0.00 -1.00  0.00  0.50  0.00

 DIRECT LATTICE VECTORS CARTESIAN COMPONENTS (ANGSTROM)
          X                    Y                    Z
   0.110446537300E+02   0.676289991907E-15   0.000000000000E+00
   0.000000000000E+00   0.413741847000E+01   0.000000000000E+00
  -0.553504959146E+01   0.678106238632E-15   0.959185514707E+01


 CARTESIAN COORDINATES - PRIMITIVE CELL
 *******************************************************************************
 *      ATOM          X(ANGSTROM)         Y(ANGSTROM)         Z(ANGSTROM)
 *******************************************************************************
    1    12 MG    4.179071256308E+00  1.793882450236E+00  2.424763918940E+00
    2    12 MG   -4.179071256308E+00 -2.748267847643E-01 -2.424763918940E+00
    3    12 MG   -1.424144488191E+00 -2.743605387840E-01  2.371126889366E+00
    4    12 MG    1.424144488191E+00  1.794348696216E+00 -2.371126889366E+00
    5    53 I     1.342642752338E+00  1.863357306363E+00  8.551384855775E-01
    6    53 I    -1.342642752338E+00 -2.053519286368E-01 -8.551384855775E-01
    7    53 I     1.412145494549E+00 -2.053838908921E-01  3.940838356107E+00
    8    53 I    -1.412145494549E+00  1.863325344108E+00 -3.940838356107E+00
    9    53 I     1.348851868946E+00 -2.017336337055E-01 -5.527067012272E+00
   10    53 I    -1.348851868946E+00  1.866975601294E+00  5.527067012272E+00
   11    53 I    -4.103643927389E+00  1.867037842182E+00  7.311948721495E-01
   12    53 I     4.103643927389E+00 -2.016713928183E-01 -7.311948721495E-01
   13     8 O     2.904927152891E+00 -1.298935677891E+00  1.199249352802E+00
   14     8 O    -2.904927152891E+00  7.697735571091E-01 -1.199249352802E+00
   15     8 O     9.447159284568E-01 -1.264890484435E+00 -6.654336772856E-01
   16     8 O    -9.447159284568E-01  8.038187505651E-01  6.654336772856E-01
   17     8 O     3.473773106387E-01 -1.184974244661E+00  1.983461602646E+00
   18     8 O    -3.473773106387E-01  8.837349903388E-01 -1.983461602646E+00
   19     8 O     2.407172870193E+00  8.839243330835E-01  2.812478406965E+00
   20     8 O    -2.407172870193E+00 -1.184784901916E+00 -2.812478406965E+00
   21     8 O    -1.501853446269E-01  7.697502991342E-01  3.596821822543E+00
   22     8 O     1.501853446269E-01 -1.298958935866E+00 -3.596821822543E+00
   23     8 O    -3.699504548619E+00  8.036812049172E-01 -4.130395614984E+00
   24     8 O     3.699504548619E+00 -1.265028030083E+00  4.130395614984E+00
   25     8 O    -1.533986426937E-01  8.672171404626E-01 -5.764762093890E+00
   26     8 O     1.533986426937E-01 -1.201492094537E+00  5.764762093890E+00
   27     8 O     1.981488396080E+00  8.017410083050E-01 -4.089069441617E+00
   28     8 O    -1.981488396080E+00 -1.266968226695E+00  4.089069441617E+00
   29     8 O    -3.153037862986E+00  7.278777956480E-01  2.820706380823E+00
   30     8 O     3.153037862986E+00 -1.340831439352E+00 -2.820706380823E+00
   31     8 O    -5.136934291411E+00 -1.340850629360E+00  1.975253081681E+00
   32     8 O     5.136934291411E+00  7.278586056404E-01 -1.975253081681E+00
   33     8 O    -2.601476646995E+00 -1.201424038892E+00  9.690551984432E-01
   34     8 O     2.601476646995E+00  8.672851961077E-01 -9.690551984432E-01
   35     8 O    -4.736279785256E+00 -1.266870892721E+00 -7.067748964516E-01
   36     8 O     4.736279785256E+00  8.018383422789E-01  7.067748964516E-01

 *******************************************************************************
 STARTING BASIS SET HANDLING 
 *******************************************************************************

 Loading internal basis set: POB-TZVP-REV2       

 Please cite in your publication:
 D. Vilela Oliveira, M. F. Peintinger, J. Laun, and T. Bredow, J. Comput. Chem., 40 (2019)                                                                                                                                                                       
 J. Laun, and T. Bredow, J. Comput. Chem., 42 (2021)                                                                                                                                                                                                             
 J. Laun, and T. Bredow, J. Comput. Chem., 43 (2022)                                                                                                                                                                                                             

 *******************************************************************************
 *** PSEUDOPOTENTIAL INFORMATION ***
 *******************************************************************************

 ATOMIC NUMBER  53, NUCLEAR CHARGE 25.000,                      PSEUDOPOTENTIAL
   TYPE       EXPONENT      COEFF.    N      EXPONENT      COEFF.    N
  P0 TMS    40.0333760   49.9896490   0    17.3005760  281.0065560   0
             8.8517200   61.4167390   0
  P1 TMS    15.7201410   67.4162390   0    15.2082220  134.8076960   0
             8.2941860   14.5665480   0     7.7539490   28.9684220   0
  P2 TMS    13.8177510   35.5387560   0    13.5878050   53.3397590   0
             6.9476300    9.7164660   0     6.9600990   14.9775000   0
  P3 TMS    18.5229500  -20.1766180   0    18.2510350  -26.0880770   0
             7.5579010   -0.2204340   0     7.5974040   -0.2216460   0

 *******************************************************************************
 LOCAL ATOMIC FUNCTIONS BASIS SET
 *******************************************************************************
   ATOM   X(AU)   Y(AU)   Z(AU)  N. TYPE  EXPONENT  S COEF   P COEF   D/F/G COEF
 *******************************************************************************
   1 MG   7.897   3.390   4.582
                                  1 S  
                                         3.144E+04 6.091E-04 0.000E+00 0.000E+00
                                         4.716E+03 4.707E-03 0.000E+00 0.000E+00
                                         1.073E+03 2.414E-02 0.000E+00 0.000E+00
                                         3.036E+02 9.363E-02 0.000E+00 0.000E+00
                                         9.863E+01 2.665E-01 0.000E+00 0.000E+00
                                         3.494E+01 4.789E-01 0.000E+00 0.000E+00
                                         1.286E+01 3.370E-01 0.000E+00 0.000E+00
                                  2 S  
                                         6.488E+01 1.918E-02 0.000E+00 0.000E+00
                                         1.973E+01 9.091E-02 0.000E+00 0.000E+00
                                         2.895E+00-3.956E-01 0.000E+00 0.000E+00
                                  3 S  
                                         1.196E+00 1.683E+00 0.000E+00 0.000E+00
                                         5.433E-01 5.214E-01 0.000E+00 0.000E+00
                                  4 S  
                                         8.347E-01 1.000E+00 0.000E+00 0.000E+00
                                  5 S  
                                         1.451E-01 1.000E+00 0.000E+00 0.000E+00
                           6-     8 P  
                                         1.799E+02 0.000E+00 5.380E-03 0.000E+00
                                         4.212E+01 0.000E+00 3.932E-02 0.000E+00
                                         1.312E+01 0.000E+00 1.574E-01 0.000E+00
                                         4.626E+00 0.000E+00 3.592E-01 0.000E+00
                                         1.670E+00 0.000E+00 4.553E-01 0.000E+00
                           9-    11 P  
                                         5.663E-01 0.000E+00 1.000E+00 0.000E+00
                          12-    14 P  
                                         1.881E-01 0.000E+00 1.000E+00 0.000E+00
                          15-    19 D  
                                         2.936E-01 0.000E+00 0.000E+00 1.000E+00
   2 MG  -7.897  -0.519  -4.582
   3 MG  -2.691  -0.518   4.481
   4 MG   2.691   3.391  -4.481
   5 I    2.537   3.521   1.616
                                 77 S  
                                         5.900E+03 2.419E-04 0.000E+00 0.000E+00
                                         8.985E+02 1.547E-03 0.000E+00 0.000E+00
                                         2.004E+02 4.284E-03 0.000E+00 0.000E+00
                                         3.142E+01-3.942E-02 0.000E+00 0.000E+00
                                         1.565E+01 9.609E-01 0.000E+00 0.000E+00
                                 78 S  
                                         1.182E+01 7.596E-01 0.000E+00 0.000E+00
                                         6.461E+00 4.250E-01 0.000E+00 0.000E+00
                                 79 S  
                                         2.221E+00 7.013E-01 0.000E+00 0.000E+00
                                         1.042E+00 2.987E-01 0.000E+00 0.000E+00
                                 80 S  
                                         2.321E-01 1.000E+00 0.000E+00 0.000E+00
                          81-    83 P  
                                         1.973E+02 0.000E+00 7.395E-04 0.000E+00
                                         2.006E+01 0.000E+00 6.617E-02 0.000E+00
                                         9.763E+00 0.000E+00-2.855E-01 0.000E+00
                          84-    86 P  
                                         1.298E+01 0.000E+00-4.910E-02 0.000E+00
                                         3.620E+00 0.000E+00 3.891E-01 0.000E+00
                                         2.023E+00 0.000E+00 6.561E-01 0.000E+00
                                         1.037E+00 0.000E+00 3.180E-01 0.000E+00
                          87-    89 P  
                                         3.996E-01 0.000E+00 1.000E+00 0.000E+00
                          90-    92 P  
                                         1.222E-01 0.000E+00 1.000E+00 0.000E+00
                          93-    97 D  
                                         1.191E+02 0.000E+00 0.000E+00 8.260E-04
                                         3.340E+01 0.000E+00 0.000E+00 6.838E-03
                                         1.781E+01 0.000E+00 0.000E+00-1.031E-02
                                         4.899E+00 0.000E+00 0.000E+00 2.267E-01
                                         2.452E+00 0.000E+00 0.000E+00 4.418E-01
                                         1.182E+00 0.000E+00 0.000E+00 3.678E-01
                          98-   102 D  
                                         1.004E+00 0.000E+00 0.000E+00 1.000E+00
                         103-   107 D  
                                         5.278E-01 0.000E+00 0.000E+00 1.000E+00
                         108-   112 D  
                                         2.010E-01 0.000E+00 0.000E+00 1.000E+00
   6 I   -2.537  -0.388  -1.616
   7 I    2.669  -0.388   7.447
   8 I   -2.669   3.521  -7.447
   9 I    2.549  -0.381 -10.445
  10 I   -2.549   3.528  10.445
  11 I   -7.755   3.528   1.382
  12 I    7.755  -0.381  -1.382
  13 O    5.490  -2.455   2.266
                                365 S  
                                         2.703E+04 2.173E-04 0.000E+00 0.000E+00
                                         4.052E+03 1.684E-03 0.000E+00 0.000E+00
                                         9.223E+02 8.740E-03 0.000E+00 0.000E+00
                                         2.612E+02 3.524E-02 0.000E+00 0.000E+00
                                         8.535E+01 1.115E-01 0.000E+00 0.000E+00
                                         3.104E+01 2.559E-01 0.000E+00 0.000E+00
                                366 S  
                                         1.226E+01 3.977E-01 0.000E+00 0.000E+00
                                         4.999E+00 2.463E-01 0.000E+00 0.000E+00
                                367 S  
                                         1.099E+00 1.000E+00 0.000E+00 0.000E+00
                                368 S  
                                         3.566E-01 1.000E+00 0.000E+00 0.000E+00
                         369-   371 P  
                                         6.327E+01 0.000E+00 6.069E-03 0.000E+00
                                         1.463E+01 0.000E+00 4.191E-02 0.000E+00
                                         4.450E+00 0.000E+00 1.615E-01 0.000E+00
                                         1.528E+00 0.000E+00 3.571E-01 0.000E+00
                         372-   374 P  
                                         5.490E-01 0.000E+00 1.000E+00 0.000E+00
                         375-   377 P  
                                         1.859E-01 0.000E+00 1.000E+00 0.000E+00
                         378-   382 D  
                                         4.535E-01 0.000E+00 0.000E+00 1.000E+00
  14 O   -5.490   1.455  -2.266
  15 O    1.785  -2.390  -1.257
  16 O   -1.785   1.519   1.257
  17 O    0.656  -2.239   3.748
  18 O   -0.656   1.670  -3.748
  19 O    4.549   1.670   5.315
  20 O   -4.549  -2.239  -5.315
  21 O   -0.284   1.455   6.797
  22 O    0.284  -2.455  -6.797
  23 O   -6.991   1.519  -7.805
  24 O    6.991  -2.391   7.805
  25 O   -0.290   1.639 -10.894
  26 O    0.290  -2.270  10.894
  27 O    3.744   1.515  -7.727
  28 O   -3.744  -2.394   7.727
  29 O   -5.958   1.375   5.330
  30 O    5.958  -2.534  -5.330
  31 O   -9.707  -2.534   3.733
  32 O    9.707   1.375  -3.733
  33 O   -4.916  -2.270   1.831
  34 O    4.916   1.639  -1.831
  35 O   -8.950  -2.394  -1.336
  36 O    8.950   1.515   1.336

 *******************************************************************************
 FINISHED BASIS SET HANDLING 
 *******************************************************************************

 INFORMATION **** SET_MPP **** PCRYSTAL CALCULATION
 INFORMATION **** READM2 **** NEW DEFAULT: FOCK/KS MATRIX MIXING SET TO 30 %
 INFORMATION **** READM2 **** NEW DEFAULT: FULL DIRECT SCF MODE
 INFORMATION **** READM2 **** NEW DEFAULT: COULOMB BIPOLAR BUFFER SET TO 32 Mb
 INFORMATION **** READM2 **** NEW DEFAULT: EXCHANGE BIPOLAR BUFFER SET TO 32 Mb

 *******************************************************************************
 NEW DEFAULT: DFT INTEGRATION GRID INCREASED TO XLGRID
 NEW DEFAULT: DIIS ACCELERATOR ACTIVE
 USE KEYWORD NODIIS TO TURN IT OFF
 *******************************************************************************

 INFORMATION **** DFTD3_INPUT **** PERFORM LATEST DISPERSION CORRECTION DFT-D3(BJ) WITH AUTOMATIC PARAMETER SETUP
 PLEASE CITE:
 (1) DFT-D3 Reference
  S. Grimme, J. Antony, S. Ehrlich, and H. Krieg, J. Chem. Phys. 132 (2010), 154104
 (2) BJ-Damping Reference
  S. Grimme, S. Ehrlich, and L. Goerigk, J. Comput. Chem. 32 (2011), 1456-1465
 (3) General DFT-D Review
  S. Grimme, A. Hansen, J. G. Brandenburg, and C. Bannwarth,
  Chem. Rev. 116 (2016), 5105-5154

 INFORMATION **** TOLINTEG **** COULOMB AND EXCHANGE SERIES TOLERANCES MODIFIED
 INFORMATION **** TOLDEE **** SCF TOL ON TOTAL ENERGY SET TO           9
 *******************************************************************************
 N. OF ATOMS PER CELL        36  COULOMB OVERLAP TOL         (T1) 10**   -9
 NUMBER OF SHELLS           324  COULOMB PENETRATION TOL     (T2) 10**   -9
 NUMBER OF AO               796  EXCHANGE OVERLAP TOL        (T3) 10**   -9
 N. OF ELECTRONS PER CELL   440  EXCHANGE PSEUDO OVP (F(G))  (T4) 10**   -9
 CORE ELECTRONS PER CELL     88  EXCHANGE PSEUDO OVP (P(G))  (T5) 10**  -27
 N. OF SYMMETRY OPERATORS     2  POLE ORDER IN MONO ZONE                  4
 *******************************************************************************
 TYPE OF CALCULATION :  RESTRICTED CLOSED SHELL
 KOHN-SHAM HAMILTONIAN

 (EXCHANGE)[CORRELATION] FUNCTIONAL:(PERDEW-BURKE-ERNZERHOF)[PERDEW-BURKE-ERNZERHOF]


 HYBRID EXCHANGE - PERCENTAGE OF FOCK EXCHANGE    25.0000
 CORE  PSEUDO POTENTIAL         TOL. ON PSEUDO              (TP) 10**- 6

 CAPPA:IS1  6;IS2  6;IS3  6; K PTS MONK NET  80; SYMMOPS:K SPACE   4;G SPACE   2

 *******************************************************************************
 MAX NUMBER OF SCF CYCLES      50  CONVERGENCE ON DELTAP        10**-19
 WEIGHT OF F(I) IN F(I+1)      30% CONVERGENCE ON ENERGY        10**- 9
 SHRINK. FACT.(MONKH.)    6  6  6  NUMBER OF K POINTS IN THE IBZ     80
 SHRINKING FACTOR(GILAT NET)    6  NUMBER OF K POINTS(GILAT NET)     80
 *******************************************************************************
 *** K POINTS COORDINATES (OBLIQUE COORDINATES IN UNITS OF IS =  6)
   1-R(  0  0  0)   2-C(  1  0  0)   3-C(  2  0  0)   4-R(  3  0  0)
   5-C(  0  1  0)   6-C(  1  1  0)   7-C(  2  1  0)   8-C(  3  1  0)
   9-C(  0  2  0)  10-C(  1  2  0)  11-C(  2  2  0)  12-C(  3  2  0)
  13-R(  0  3  0)  14-C(  1  3  0)  15-C(  2  3  0)  16-R(  3  3  0)
  17-C(  0  0  1)  18-C(  1  0  1)  19-C(  2  0  1)  20-C(  3  0  1)
  21-C(  4  0  1)  22-C(  5  0  1)  23-C(  0  1  1)  24-C(  1  1  1)
  25-C(  2  1  1)  26-C(  3  1  1)  27-C(  4  1  1)  28-C(  5  1  1)
  29-C(  0  2  1)  30-C(  1  2  1)  31-C(  2  2  1)  32-C(  3  2  1)
  33-C(  4  2  1)  34-C(  5  2  1)  35-C(  0  3  1)  36-C(  1  3  1)
  37-C(  2  3  1)  38-C(  3  3  1)  39-C(  4  3  1)  40-C(  5  3  1)
  41-C(  0  0  2)  42-C(  1  0  2)  43-C(  2  0  2)  44-C(  3  0  2)
  45-C(  4  0  2)  46-C(  5  0  2)  47-C(  0  1  2)  48-C(  1  1  2)
  49-C(  2  1  2)  50-C(  3  1  2)  51-C(  4  1  2)  52-C(  5  1  2)
  53-C(  0  2  2)  54-C(  1  2  2)  55-C(  2  2  2)  56-C(  3  2  2)
  57-C(  4  2  2)  58-C(  5  2  2)  59-C(  0  3  2)  60-C(  1  3  2)
  61-C(  2  3  2)  62-C(  3  3  2)  63-C(  4  3  2)  64-C(  5  3  2)
  65-R(  0  0  3)  66-C(  1  0  3)  67-C(  2  0  3)  68-R(  3  0  3)
  69-C(  0  1  3)  70-C(  1  1  3)  71-C(  2  1  3)  72-C(  3  1  3)
  73-C(  0  2  3)  74-C(  1  2  3)  75-C(  2  2  3)  76-C(  3  2  3)
  77-R(  0  3  3)  78-C(  1  3  3)  79-C(  2  3  3)  80-R(  3  3  3)

 DIRECT LATTICE VECTORS COMPON. (A.U.)     RECIP. LATTICE VECTORS COMPON. (A.U.) 
        X            Y            Z              X            Y            Z
   20.8713708    0.0000000    0.0000000      0.3010433   -0.0000000    0.1737192
    0.0000000    7.8185878    0.0000000     -0.0000000    0.8036215   -0.0000000
  -10.4597279    0.0000000   18.1259793      0.0000000    0.0000000    0.3466398

 DISK SPACE FOR EIGENVECTORS (FTN 10)    96309632 REALS

 SYMMETRY ADAPTION OF THE BLOCH FUNCTIONS ENABLED
 TTTTTTTTTTTTTTTTTTTTTTTTTTTTTT gordsh1     TELAPSE        3.63 TCPU        2.06

 MATRIX SIZE: P(G) 4759820, F(G)  452606, P(G) IRR 1201556, F(G) IRR  228643
 MAX G-VECTOR INDEX FOR 1- AND 2-ELECTRON INTEGRALS 173

 TTTTTTTTTTTTTTTTTTTTTTTTTTTTTT INPUT       TELAPSE        3.66 TCPU        2.08

 NEIGHBORS OF THE NON-EQUIVALENT ATOMS

 N = NUMBER OF NEIGHBORS AT DISTANCE R
    ATOM  N     R/ANG      R/AU   NEIGHBORS (ATOM LABELS AND CELL INDICES)
   1 MG   1     2.0293     3.8348   19 O    0 0 0
   1 MG   1     2.0483     3.8708   31 O    1 1 0
   1 MG   1     2.0520     3.8778   25 O    1 0 1
   1 MG   1     2.0534     3.8804   13 O    0 1 0
   1 MG   1     2.0606     3.8940   36 O    0 0 0
   1 MG   1     2.0742     3.9197   24 O    0 1 0

   3 MG   1     2.0292     3.8347   17 O    0 0 0
   3 MG   1     2.0483     3.8708   29 O    0 0 0
   3 MG   1     2.0522     3.8780   33 O    0 0 0
   3 MG   1     2.0532     3.8799   21 O    0 0 0
   3 MG   1     2.0609     3.8945   28 O    0 0 0
   3 MG   1     2.0741     3.9194   16 O    0 0 0

   5 I    1     1.8574     3.5099   17 O    0 1 0
   5 I    1     1.8679     3.5297   15 O    0 1 0
   5 I    1     1.8735     3.5404   13 O    0 1 0
   5 I    1     2.4299     4.5919   34 O    0 0 0
   5 I    1     2.4339     4.5993   19 O    0 0 0
   5 I    1     2.5280     4.7772   16 O    0 0 0

   7 I    1     1.8574     3.5099   19 O    0 0 0
   7 I    1     1.8679     3.5297   23 O    1 0 1
   7 I    1     1.8735     3.5405   21 O    0 0 0
   7 I    1     2.4297     4.5914   26 O    0 0 0
   7 I    1     2.4341     4.5997   17 O    0 0 0
   7 I    1     2.5280     4.7772   24 O    0 0 0

   9 I    1     1.8590     3.5130   25 O    0 0 0
   9 I    1     1.8641     3.5227   27 O    0 0 0
   9 I    1     1.8653     3.5249   29 O    0 0-1
   9 I    1     2.4487     4.6273   28 O    0 0-1
   9 I    1     2.5232     4.7682   22 O    0 0 0
   9 I    1     2.5627     4.8429   31 O    0 0-1

  11 I    1     1.8590     3.5129   33 O    0 1 0
  11 I    1     1.8641     3.5227   35 O    0 1 0
  11 I    1     1.8653     3.5249   31 O    0 1 0
  11 I    1     2.4487     4.6274   36 O   -1 0 0
  11 I    1     2.5234     4.7685   14 O    0 0 0
  11 I    1     2.5627     4.8428   29 O    0 0 0

  13 O    1     1.8735     3.5404    5 I    0-1 0
  13 O    1     2.0534     3.8804    1 MG   0-1 0
  13 O    1     2.5234     4.7685   12 I    0 0 0
  13 O    1     2.5827     4.8807   19 O    0-1 0
  13 O    1     2.6775     5.0598   17 O    0 0 0
  13 O    1     2.7057     5.1130   15 O    0 0 0

  15 O    1     1.8679     3.5297    5 I    0-1 0
  15 O    1     2.0741     3.9194    4 MG   0-1 0
  15 O    1     2.5280     4.7772    6 I    0 0 0
  15 O    1     2.6188     4.9488   34 O    0-1 0
  15 O    1     2.7057     5.1130   13 O    0 0 0
  15 O    1     2.7133     5.1274   18 O    0-1 0

  17 O    1     1.8574     3.5099    5 I    0-1 0
  17 O    1     2.0292     3.8347    3 MG   0 0 0
  17 O    1     2.4341     4.5997    7 I    0 0 0
  17 O    1     2.5829     4.8810   21 O    0 0 0
  17 O    1     2.6775     5.0598   13 O    0 0 0
  17 O    1     2.7133     5.1274   16 O    0 0 0

  19 O    1     1.8574     3.5099    7 I    0 0 0
  19 O    1     2.0293     3.8348    1 MG   0 0 0
  19 O    1     2.4339     4.5993    5 I    0 0 0
  19 O    1     2.5827     4.8807   13 O    0 1 0
  19 O    1     2.6774     5.0595   21 O    0 0 0
  19 O    1     2.7131     5.1271   24 O    0 1 0

  21 O    1     1.8735     3.5405    7 I    0 0 0
  21 O    1     2.0532     3.8799    3 MG   0 0 0
  21 O    1     2.5232     4.7682   10 I    0 0 0
  21 O    1     2.5829     4.8810   17 O    0 0 0
  21 O    1     2.6774     5.0595   19 O    0 0 0
  21 O    1     2.7057     5.1130   23 O    1 0 1

  23 O    1     1.8679     3.5297    7 I   -1 0-1
  23 O    1     2.0742     3.9197    2 MG   0 0 0
  23 O    1     2.5280     4.7772    8 I    0 0 0
  23 O    1     2.6187     4.9485   26 O   -1 0-1
  23 O    1     2.7057     5.1130   21 O   -1 0-1
  23 O    1     2.7131     5.1271   20 O    0 0 0

  25 O    1     1.8590     3.5130    9 I    0 0 0
  25 O    1     2.0520     3.8778    1 MG  -1 0-1
  25 O    1     2.4297     4.5914    8 I    0 0 0
  25 O    1     2.6187     4.9485   24 O   -1 1-1
  25 O    1     2.7148     5.1302   27 O    0 0 0
  25 O    1     2.7172     5.1347   24 O   -1 0-1

  27 O    1     1.8641     3.5227    9 I    0 0 0
  27 O    1     2.0609     3.8945    4 MG   0 0 0
  27 O    1     2.4487     4.6273   10 I    0 0-1
  27 O    1     2.6383     4.9857   30 O    0 1 0
  27 O    1     2.7128     5.1265   29 O    0 0-1
  27 O    1     2.7148     5.1302   25 O    0 0 0

  29 O    1     1.8653     3.5249    9 I    0 0 1
  29 O    1     2.0483     3.8708    3 MG   0 0 0
  29 O    1     2.5627     4.8428   11 I    0 0 0
  29 O    1     2.6383     4.9857   28 O    0 0 0
  29 O    1     2.7128     5.1265   27 O    0 0 1
  29 O    1     2.7304     5.1597   33 O    0 0 0

  31 O    1     1.8653     3.5249   11 I    0-1 0
  31 O    1     2.0483     3.8708    1 MG  -1-1 0
  31 O    1     2.5627     4.8429    9 I    0 0 1
  31 O    1     2.6382     4.9855   36 O   -1-1 0
  31 O    1     2.7128     5.1264   35 O    0 0 0
  31 O    1     2.7305     5.1600   25 O    0-1 1

  33 O    1     1.8590     3.5129   11 I    0-1 0
  33 O    1     2.0522     3.8780    3 MG   0 0 0
  33 O    1     2.4299     4.5919    6 I    0 0 0
  33 O    1     2.6188     4.9488   16 O    0 0 0
  33 O    1     2.7148     5.1302   35 O    0 0 0
  33 O    1     2.7172     5.1348   16 O    0-1 0

  35 O    1     1.8641     3.5227   11 I    0-1 0
  35 O    1     2.0606     3.8940    2 MG   0 0 0
  35 O    1     2.4487     4.6274   12 I   -1 0 0
  35 O    1     2.6382     4.9855   32 O   -1 0 0
  35 O    1     2.7128     5.1264   31 O    0 0 0
  35 O    1     2.7148     5.1302   33 O    0 0 0


 SYMMETRY ALLOWED ELASTIC DISTORTION 1
  0.5773503  0.0000000  0.0000000
  0.0000000  0.5773503  0.0000000
  0.0000000  0.0000000  0.5773503

 SYMMETRY ALLOWED ELASTIC DISTORTION 2
  0.8164966  0.0000000  0.0000000
  0.0000000 -0.4082483  0.0000000
  0.0000000  0.0000000 -0.4082483

 SYMMETRY ALLOWED ELASTIC DISTORTION 3
  0.0000000  0.0000000  0.0000000
  0.0000000  0.7071068  0.0000000
  0.0000000  0.0000000 -0.7071068

 SYMMETRY ALLOWED ELASTIC DISTORTION 4
 -0.0000000  0.0000000  0.7071068
  0.0000000 -0.0000000  0.0000000
  0.7071068  0.0000000  0.0000000

 SYMMETRY ALLOWED INTERNAL DEGREE(S) OF FREEDOM:  53
 TTTTTTTTTTTTTTTTTTTTTTTTTTTTTT SYMM        TELAPSE        3.70 TCPU        2.13
 TTTTTTTTTTTTTTTTTTTTTTTTTTTTTT INT_SCREEN  TELAPSE        3.73 TCPU        2.15

 *******************************************************************************
 *                             OPTIMIZATION STARTS                             *
 *******************************************************************************
 RECLASIFICATION OF INDICES FOR INTEGRAL CALC ACCORDING TO DIFFERENT CRITERIA:
           FIXDELTE                  FIXDELTX              FIXDELTN
          0.10000000               0.80000000                 57
 DEFAULT MAX NUM OF POINTS  114
 *******************************************************************************

 *******************************************************************************
 COORDINATE AND CELL OPTIMIZATION - POINT    1
 WARNING **** EXCBUF **** EXCH. BIPO BUFFER TOO SMALL - TO AVOID I/O SET EXCHSIZE =     8328636

 DFT PARAMETERS

     ATOM       ELECTRONS   NET CHARGE   R(ANGSTROM)
   1  12  MG     12.0000      0.0000     1.60000000
   5  53  I      25.0000      0.0000     1.33000000
  13   8  O       8.0000      0.0000     0.74000000

 SIZE OF GRID=    2710269
 TTTTTTTTTTTTTTTTTTTTTTTTTTTTTT MAKE_GRID2  TELAPSE       22.38 TCPU       20.72
 BECKE WEIGHT FUNCTION
 RADSAFE =     2.00
 TOLERANCES - DENSITY:10**- 6; POTENTIAL:10**- 9; GRID WGT:10**-14

 RADIAL INTEGRATION  - INTERVALS (POINTS,UPPER LIMIT):            1(300,  4.0*R)

 ANGULAR INTEGRATION - INTERVALS (ACCURACY LEVEL [N. POINTS] UPPER LIMIT):
  1(  6[ 146]   0.2)  2( 11[ 302]   0.5)  3( 14[ 590]   0.9)  4( 18[1454]   3.5)
  5( 14[ 590]9999.0)
 TTTTTTTTTTTTTTTTTTTTTTTTTTTTTT INT_CALC    TELAPSE       22.41 TCPU       20.75

 *******************************************************************************
 Mg(IO3)2 P21                                                                    
 CRYSTAL - SCF - TYPE OF CALCULATION :  RESTRICTED CLOSED SHELL
 *******************************************************************************

 CAPPA:IS1  6;IS2  6;IS3  6; K PTS MONK NET  80; SYMMOPS:K SPACE   4;G SPACE   2

 TTTTTTTTTTTTTTTTTTTTTTTTTTTTTT SDIK        TELAPSE       23.38 TCPU       21.72

 AAAAAAAAAAAAAAAAAAAAAAAAAAAAAAAAAAAAAAAAAAAAAAAAAAAAAAAAAAAAAAAAAAAAAAAAAAAAAAA
         ATOMIC WAVEFUNCTION(S)


 NUCLEAR CHARGE 12.0  SYMMETRY SPECIES            S    P
 N. ELECTRONS   12.0  NUMBER OF PRIMITIVE GTOS   14    7
                      NUMBER OF CONTRACTED GTOS   5    3
                      NUMBER OF CLOSED SHELLS     3    1
                      OPEN SHELL OCCUPATION       0    0

  ZNUC  SCFIT    TOTAL HF ENERGY   KINETIC ENERGY   VIRIAL THEOREM             ACCURACY
  12.0     8    -1.994903813E+02  2.003482110E+02 -1.995718306E+00  4.2E-06

 NUCLEAR CHARGE 25.0  SYMMETRY SPECIES            S    P    D
 N. ELECTRONS   25.0  NUMBER OF PRIMITIVE GTOS   10    9    9
                      NUMBER OF CONTRACTED GTOS   4    4    4
                      NUMBER OF CLOSED SHELLS     2    1    1
                      OPEN SHELL OCCUPATION       0    5    0

  ZNUC  SCFIT    TOTAL HF ENERGY   KINETIC ENERGY   VIRIAL THEOREM             ACCURACY
  25.0    10    -2.945672222E+02  1.114753143E+02 -3.642443522E+00  1.4E-06

 NUCLEAR CHARGE  8.0  SYMMETRY SPECIES            S    P
 N. ELECTRONS    8.0  NUMBER OF PRIMITIVE GTOS   10    6
                      NUMBER OF CONTRACTED GTOS   4    3
                      NUMBER OF CLOSED SHELLS     2    0
                      OPEN SHELL OCCUPATION       0    4

  ZNUC  SCFIT    TOTAL HF ENERGY   KINETIC ENERGY   VIRIAL THEOREM             ACCURACY
   8.0    13    -7.480300557E+01  7.484348361E+01 -1.999459164E+00  4.9E-06

 AAAAAAAAAAAAAAAAAAAAAAAAAAAAAAAAAAAAAAAAAAAAAAAAAAAAAAAAAAAAAAAAAAAAAAAAAAAAAAA

 CHARGE NORMALIZATION FACTOR   1.00000000
 TOTAL ATOMIC CHARGES:
  12.0000000  12.0000000  12.0000000  12.0000000  25.0000000  25.0000000
  25.0000000  25.0000000  25.0000000  25.0000000  25.0000000  25.0000000
   8.0000000   8.0000000   8.0000000   8.0000000   8.0000000   8.0000000
   8.0000000   8.0000000   8.0000000   8.0000000   8.0000000   8.0000000
   8.0000000   8.0000000   8.0000000   8.0000000   8.0000000   8.0000000
   8.0000000   8.0000000   8.0000000   8.0000000   8.0000000   8.0000000
 TTTTTTTTTTTTTTTTTTTTTTTTTTTTTT MOQGAD      TELAPSE       23.44 TCPU       21.77
 TTTTTTTTTTTTTTTTTTTTTTTTTTTTTT SHELLXN     TELAPSE       59.50 TCPU       57.82
 TTTTTTTTTTTTTTTTTTTTTTTTTTTTTT MONMO3      TELAPSE       59.89 TCPU       58.21
 NUMERICALLY INTEGRATED DENSITY    439.9999738065
 TTTTTTTTTTTTTTTTTTTTTTTTTTTTTT NUMDFT      TELAPSE       64.31 TCPU       62.63
 CYC   0 ETOT(AU) -4.974434011089E+03 DETOT -4.97E+03 tst  0.00E+00 PX  1.00E+00
 TTTTTTTTTTTTTTTTTTTTTTTTTTTTTT DIIS        TELAPSE       64.38 TCPU       62.70
 TTTTTTTTTTTTTTTTTTTTTTTTTTTTTT FDIK        TELAPSE       74.02 TCPU       72.33
 INSULATING STATE
 TOP OF VALENCE BANDS -    BAND    220; K   13; EIG -2.8865153E-01 AU
 TOP OF VALENCE BANDS -    BAND    220; K    1; EIG -3.0171452E-01 AU
 BOTTOM OF VIRTUAL BANDS - BAND    221; K   43; EIG -1.1043370E-01 AU
 INDIRECT ENERGY BAND GAP:   4.8496 eV
 BOTTOM OF VIRTUAL BANDS - BAND    221; K    1; EIG -1.0794998E-01 AU
 TTTTTTTTTTTTTTTTTTTTTTTTTTTTTT PDIG        TELAPSE       76.92 TCPU       75.23
 CHARGE NORMALIZATION FACTOR   1.00000000
 TOTAL ATOMIC CHARGES:
  10.6438276  10.6438276  10.6438551  10.6438551  22.2392813  22.2392813
  22.2392418  22.2392418  22.2294365  22.2294365  22.2294677  22.2294677
   9.1899905   9.1899905   9.1919097   9.1919097   9.0946827   9.0946827
   9.0946907   9.0946907   9.1899312   9.1899312   9.1919272   9.1919272
   9.1058057   9.1058057   9.1167768   9.1167768   9.1883055   9.1883055
   9.1883151   9.1883151   9.1058536   9.1058536   9.1167012   9.1167012
 TTTTTTTTTTTTTTTTTTTTTTTTTTTTTT MOQGAD      TELAPSE       76.93 TCPU       75.24
 TTTTTTTTTTTTTTTTTTTTTTTTTTTTTT SHELLXN     TELAPSE      114.88 TCPU      113.17
 TTTTTTTTTTTTTTTTTTTTTTTTTTTTTT MONMO3      TELAPSE      115.26 TCPU      113.55
 NUMERICALLY INTEGRATED DENSITY    439.9999684074
 TTTTTTTTTTTTTTTTTTTTTTTTTTTTTT NUMDFT      TELAPSE      119.62 TCPU      117.90
 CYC   1 ETOT(AU) -4.966792228100E+03 DETOT  7.64E+00 tst  0.00E+00 PX  1.00E+00
 TTTTTTTTTTTTTTTTTTTTTTTTTTTTTT DIIS        TELAPSE      119.70 TCPU      117.98
 DIIS TEST: 0.11046E+02 AT SCF   CYCLE   1 - MIX   30 %
 TTTTTTTTTTTTTTTTTTTTTTTTTTTTTT FDIK        TELAPSE      121.65 TCPU      119.92
 INSULATING STATE
 TOP OF VALENCE BANDS -    BAND    220; K   43; EIG -1.1933642E-01 AU
 TOP OF VALENCE BANDS -    BAND    220; K    1; EIG -1.2971527E-01 AU
 BOTTOM OF VIRTUAL BANDS - BAND    221; K   43; EIG -1.2415714E-02 AU
 DIRECT ENERGY BAND GAP:   2.9095 eV
 BOTTOM OF VIRTUAL BANDS - BAND    221; K    1; EIG -9.5425455E-03 AU
 TTTTTTTTTTTTTTTTTTTTTTTTTTTTTT PDIG        TELAPSE      122.19 TCPU      120.47
 CHARGE NORMALIZATION FACTOR   1.00000000
 TOTAL ATOMIC CHARGES:
  10.7729966  10.7729966  10.7730296  10.7730296  24.0901447  24.0901447
  24.0901129  24.0901129  24.0384649  24.0384649  24.0383557  24.0383557
   8.5545527   8.5545527   8.5389194   8.5389194   8.4836959   8.4836959
   8.4836063   8.4836063   8.5544487   8.5544487   8.5389703   8.5389703
   8.4877461   8.4877461   8.5020215   8.5020215   8.5314868   8.5314868
   8.5316178   8.5316178   8.4877526   8.4877526   8.5020775   8.5020775
 TTTTTTTTTTTTTTTTTTTTTTTTTTTTTT MOQGAD      TELAPSE      122.21 TCPU      120.48
 TTTTTTTTTTTTTTTTTTTTTTTTTTTTTT SHELLXN     TELAPSE      160.19 TCPU      158.45
 TTTTTTTTTTTTTTTTTTTTTTTTTTTTTT MONMO3      TELAPSE      160.58 TCPU      158.84
 NUMERICALLY INTEGRATED DENSITY    439.9999681957
 TTTTTTTTTTTTTTTTTTTTTTTTTTTTTT NUMDFT      TELAPSE      164.94 TCPU      163.19
 CYC   2 ETOT(AU) -4.967107950435E+03 DETOT -3.16E-01 tst  1.83E-02 PX  6.66E-01
 TTTTTTTTTTTTTTTTTTTTTTTTTTTTTT DIIS        TELAPSE      165.01 TCPU      163.26
 DIIS TEST: 0.94743E+01 AT SCF   CYCLE   2 - DIIS ACTIVE - HISTORY:     2 CYCLES
 TTTTTTTTTTTTTTTTTTTTTTTTTTTTTT FDIK        TELAPSE      166.84 TCPU      165.08
 INSULATING STATE
 TOP OF VALENCE BANDS -    BAND    220; K   13; EIG -1.8508576E-01 AU
 TOP OF VALENCE BANDS -    BAND    220; K    1; EIG -1.9339369E-01 AU
 BOTTOM OF VIRTUAL BANDS - BAND    221; K   43; EIG -1.3422620E-02 AU
 INDIRECT ENERGY BAND GAP:   4.6712 eV
 BOTTOM OF VIRTUAL BANDS - BAND    221; K    1; EIG -1.1350867E-02 AU
 TTTTTTTTTTTTTTTTTTTTTTTTTTTTTT PDIG        TELAPSE      167.39 TCPU      165.62
 CHARGE NORMALIZATION FACTOR   1.00000000
 TOTAL ATOMIC CHARGES:
  10.7793035  10.7793035  10.7794124  10.7794124  23.1105174  23.1105174
  23.1104978  23.1104978  23.1411469  23.1411469  23.1410963  23.1410963
   8.8909132   8.8909132   8.9046041   8.9046041   8.7334910   8.7334910
   8.7335062   8.7335062   8.8908298   8.8908298   8.9046300   8.9046300
   8.7623418   8.7623418   8.7776200   8.7776200   8.9000172   8.9000172
   8.9000563   8.9000563   8.7623763   8.7623763   8.7776396   8.7776396
 TTTTTTTTTTTTTTTTTTTTTTTTTTTTTT MOQGAD      TELAPSE      167.40 TCPU      165.63
 TTTTTTTTTTTTTTTTTTTTTTTTTTTTTT SHELLXN     TELAPSE      205.42 TCPU      203.65
 TTTTTTTTTTTTTTTTTTTTTTTTTTTTTT MONMO3      TELAPSE      205.81 TCPU      204.03
 NUMERICALLY INTEGRATED DENSITY    439.9999700600
 TTTTTTTTTTTTTTTTTTTTTTTTTTTTTT NUMDFT      TELAPSE      210.18 TCPU      208.40
 CYC   3 ETOT(AU) -4.968754222059E+03 DETOT -1.65E+00 tst  3.94E-03 PX  1.62E-01
 TTTTTTTTTTTTTTTTTTTTTTTTTTTTTT DIIS        TELAPSE      210.27 TCPU      208.48
 DIIS TEST: 0.64028E-01 AT SCF   CYCLE   3 - DIIS ACTIVE - HISTORY:     3 CYCLES
 TTTTTTTTTTTTTTTTTTTTTTTTTTTTTT FDIK        TELAPSE      212.15 TCPU      210.36
 INSULATING STATE
 TOP OF VALENCE BANDS -    BAND    220; K   13; EIG -1.8563687E-01 AU
 TOP OF VALENCE BANDS -    BAND    220; K    1; EIG -1.9493209E-01 AU
 BOTTOM OF VIRTUAL BANDS - BAND    221; K   43; EIG -1.0268244E-02 AU
 INDIRECT ENERGY BAND GAP:   4.7720 eV
 BOTTOM OF VIRTUAL BANDS - BAND    221; K    1; EIG -7.7799730E-03 AU
 TTTTTTTTTTTTTTTTTTTTTTTTTTTTTT PDIG        TELAPSE      212.69 TCPU      210.90
 CHARGE NORMALIZATION FACTOR   1.00000000
 TOTAL ATOMIC CHARGES:
  10.7506541  10.7506541  10.7506823  10.7506823  23.1584713  23.1584713
  23.1584055  23.1584055  23.1263446  23.1263446  23.1263189  23.1263189
   8.8709548   8.8709548   8.8525946   8.8525946   8.8001429   8.8001429
   8.8001717   8.8001717   8.8709072   8.8709072   8.8525862   8.8525862
   8.7935832   8.7935832   8.8084539   8.8084539   8.8388014   8.8388014
   8.8388721   8.8388721   8.7936114   8.7936114   8.8084441   8.8084441
 TTTTTTTTTTTTTTTTTTTTTTTTTTTTTT MOQGAD      TELAPSE      212.70 TCPU      210.91
 TTTTTTTTTTTTTTTTTTTTTTTTTTTTTT SHELLXN     TELAPSE      250.76 TCPU      248.95
 TTTTTTTTTTTTTTTTTTTTTTTTTTTTTT MONMO3      TELAPSE      251.15 TCPU      249.33
 NUMERICALLY INTEGRATED DENSITY    439.9999695856
 TTTTTTTTTTTTTTTTTTTTTTTTTTTTTT NUMDFT      TELAPSE      255.33 TCPU      253.51
 CYC   4 ETOT(AU) -4.968754743744E+03 DETOT -5.22E-04 tst  9.17E-05 PX  2.13E-02
 TTTTTTTTTTTTTTTTTTTTTTTTTTTTTT DIIS        TELAPSE      255.40 TCPU      253.57
 DIIS TEST: 0.66005E-01 AT SCF   CYCLE   4 - DIIS ACTIVE - HISTORY:     4 CYCLES
 TTTTTTTTTTTTTTTTTTTTTTTTTTTTTT FDIK        TELAPSE      257.05 TCPU      255.17
 INSULATING STATE
 TOP OF VALENCE BANDS -    BAND    220; K   13; EIG -1.8432145E-01 AU
 TOP OF VALENCE BANDS -    BAND    220; K    1; EIG -1.9373461E-01 AU
 BOTTOM OF VIRTUAL BANDS - BAND    221; K   43; EIG -8.4663029E-03 AU
 INDIRECT ENERGY BAND GAP:   4.7853 eV
 BOTTOM OF VIRTUAL BANDS - BAND    221; K    1; EIG -6.3220230E-03 AU
 TTTTTTTTTTTTTTTTTTTTTTTTTTTTTT PDIG        TELAPSE      257.59 TCPU      255.72
 CHARGE NORMALIZATION FACTOR   1.00000000
 TOTAL ATOMIC CHARGES:
  10.7469419  10.7469419  10.7469688  10.7469688  23.1493330  23.1493330
  23.1492822  23.1492822  23.1415404  23.1415404  23.1415692  23.1415692
   8.8783161   8.8783161   8.8845483   8.8845483   8.7560882   8.7560882
   8.7561085   8.7561085   8.8782646   8.8782646   8.8845416   8.8845416
   8.7765617   8.7765617   8.7892599   8.7892599   8.8774190   8.8774190
   8.8774481   8.8774481   8.7765828   8.7765828   8.7892257   8.7892257
 TTTTTTTTTTTTTTTTTTTTTTTTTTTTTT MOQGAD      TELAPSE      257.61 TCPU      255.73
 TTTTTTTTTTTTTTTTTTTTTTTTTTTTTT SHELLXN     TELAPSE      295.67 TCPU      293.48
 TTTTTTTTTTTTTTTTTTTTTTTTTTTTTT MONMO3      TELAPSE      296.05 TCPU      293.86
 NUMERICALLY INTEGRATED DENSITY    439.9999697752
 TTTTTTTTTTTTTTTTTTTTTTTTTTTTTT NUMDFT      TELAPSE      300.40 TCPU      298.20
 CYC   5 ETOT(AU) -4.968765704668E+03 DETOT -1.10E-02 tst  4.47E-05 PX  1.13E-02
 TTTTTTTTTTTTTTTTTTTTTTTTTTTTTT DIIS        TELAPSE      300.48 TCPU      298.26
 DIIS TEST: 0.41769E-02 AT SCF   CYCLE   5 - DIIS ACTIVE - HISTORY:     5 CYCLES
 TTTTTTTTTTTTTTTTTTTTTTTTTTTTTT FDIK        TELAPSE      302.71 TCPU      300.49
 INSULATING STATE
 TOP OF VALENCE BANDS -    BAND    220; K   13; EIG -1.8356624E-01 AU
 TOP OF VALENCE BANDS -    BAND    220; K    1; EIG -1.9255455E-01 AU
 BOTTOM OF VIRTUAL BANDS - BAND    221; K   43; EIG -7.3179414E-03 AU
 INDIRECT ENERGY BAND GAP:   4.7960 eV
 BOTTOM OF VIRTUAL BANDS - BAND    221; K    1; EIG -5.1942256E-03 AU
 TTTTTTTTTTTTTTTTTTTTTTTTTTTTTT PDIG        TELAPSE      303.25 TCPU      301.03
 CHARGE NORMALIZATION FACTOR   1.00000000
 TOTAL ATOMIC CHARGES:
  10.7510751  10.7510751  10.7511072  10.7511072  23.1386676  23.1386676
  23.1386486  23.1386486  23.1424228  23.1424228  23.1424959  23.1424959
   8.8837811   8.8837811   8.8777717   8.8777717   8.7658304   8.7658304
   8.7658448   8.7658448   8.8837138   8.8837138   8.8777775   8.8777775
   8.7751011   8.7751011   8.7941224   8.7941224   8.8712351   8.8712351
   8.8712398   8.8712398   8.7751153   8.7751153   8.7940497   8.7940497
 TTTTTTTTTTTTTTTTTTTTTTTTTTTTTT MOQGAD      TELAPSE      303.27 TCPU      301.04
 TTTTTTTTTTTTTTTTTTTTTTTTTTTTTT SHELLXN     TELAPSE      341.30 TCPU      338.74
 TTTTTTTTTTTTTTTTTTTTTTTTTTTTTT MONMO3      TELAPSE      341.68 TCPU      339.12
 NUMERICALLY INTEGRATED DENSITY    439.9999696750
 TTTTTTTTTTTTTTTTTTTTTTTTTTTTTT NUMDFT      TELAPSE      345.87 TCPU      343.29
 CYC   6 ETOT(AU) -4.968766131257E+03 DETOT -4.27E-04 tst  1.67E-06 PX  3.03E-03
 TTTTTTTTTTTTTTTTTTTTTTTTTTTTTT DIIS        TELAPSE      345.93 TCPU      343.35
 DIIS TEST: 0.91114E-03 AT SCF   CYCLE   6 - DIIS ACTIVE - HISTORY:     6 CYCLES
 TTTTTTTTTTTTTTTTTTTTTTTTTTTTTT FDIK        TELAPSE      347.52 TCPU      344.93
 INSULATING STATE
 TOP OF VALENCE BANDS -    BAND    220; K   13; EIG -1.8398114E-01 AU
 TOP OF VALENCE BANDS -    BAND    220; K    1; EIG -1.9373653E-01 AU
 BOTTOM OF VIRTUAL BANDS - BAND    221; K   43; EIG -7.3494763E-03 AU
 INDIRECT ENERGY BAND GAP:   4.8064 eV
 BOTTOM OF VIRTUAL BANDS - BAND    221; K    1; EIG -5.1754118E-03 AU
 TTTTTTTTTTTTTTTTTTTTTTTTTTTTTT PDIG        TELAPSE      348.07 TCPU      345.48
 CHARGE NORMALIZATION FACTOR   1.00000000
 TOTAL ATOMIC CHARGES:
  10.7507071  10.7507071  10.7507364  10.7507364  23.1464140  23.1464140
  23.1463867  23.1463867  23.1344869  23.1344869  23.1345553  23.1345553
   8.8746309   8.8746309   8.8839484   8.8839484   8.7625420   8.7625420
   8.7625566   8.7625566   8.8745720   8.8745720   8.8839601   8.8839601
   8.7831757   8.7831757   8.7907890   8.7907890   8.8733105   8.8733105
   8.8733211   8.8733211   8.7831832   8.7831832   8.7907241   8.7907241
 TTTTTTTTTTTTTTTTTTTTTTTTTTTTTT MOQGAD      TELAPSE      348.08 TCPU      345.49
 TTTTTTTTTTTTTTTTTTTTTTTTTTTTTT SHELLXN     TELAPSE      386.16 TCPU      383.30
 TTTTTTTTTTTTTTTTTTTTTTTTTTTTTT MONMO3      TELAPSE      386.54 TCPU      383.69
 NUMERICALLY INTEGRATED DENSITY    439.9999697566
 TTTTTTTTTTTTTTTTTTTTTTTTTTTTTT NUMDFT      TELAPSE      390.93 TCPU      388.06
 CYC   7 ETOT(AU) -4.968766047163E+03 DETOT  8.41E-05 tst  2.06E-06 PX  2.41E-03
 TTTTTTTTTTTTTTTTTTTTTTTTTTTTTT DIIS        TELAPSE      391.01 TCPU      388.13
 DIIS TEST: 0.14016E-02 AT SCF   CYCLE   7 - DIIS ACTIVE - HISTORY:     7 CYCLES
 TTTTTTTTTTTTTTTTTTTTTTTTTTTTTT FDIK        TELAPSE      392.72 TCPU      389.82
 INSULATING STATE
 TOP OF VALENCE BANDS -    BAND    220; K   13; EIG -1.8391527E-01 AU
 TOP OF VALENCE BANDS -    BAND    220; K    1; EIG -1.9326164E-01 AU
 BOTTOM OF VIRTUAL BANDS - BAND    221; K   43; EIG -7.4330874E-03 AU
 INDIRECT ENERGY BAND GAP:   4.8023 eV
 BOTTOM OF VIRTUAL BANDS - BAND    221; K    1; EIG -5.2589666E-03 AU
 TTTTTTTTTTTTTTTTTTTTTTTTTTTTTT PDIG        TELAPSE      393.26 TCPU      390.36
 CHARGE NORMALIZATION FACTOR   1.00000000
 TOTAL ATOMIC CHARGES:
  10.7502436  10.7502436  10.7502728  10.7502728  23.1441493  23.1441493
  23.1441213  23.1441213  23.1375612  23.1375612  23.1376251  23.1376251
   8.8807092   8.8807092   8.8797392   8.8797392   8.7636498   8.7636498
   8.7636672   8.7636672   8.8806517   8.8806517   8.8797498   8.8797498
   8.7774168   8.7774168   8.7936716   8.7936716   8.8728614   8.8728614
   8.8728821   8.8728821   8.7774162   8.7774162   8.7936116   8.7936116
 TTTTTTTTTTTTTTTTTTTTTTTTTTTTTT MOQGAD      TELAPSE      393.28 TCPU      390.37
 TTTTTTTTTTTTTTTTTTTTTTTTTTTTTT SHELLXN     TELAPSE      431.33 TCPU      428.41
 TTTTTTTTTTTTTTTTTTTTTTTTTTTTTT MONMO3      TELAPSE      431.72 TCPU      428.80
 NUMERICALLY INTEGRATED DENSITY    439.9999697148
 TTTTTTTTTTTTTTTTTTTTTTTTTTTTTT NUMDFT      TELAPSE      435.92 TCPU      433.00
 CYC   8 ETOT(AU) -4.968766259537E+03 DETOT -2.12E-04 tst  8.23E-07 PX  1.14E-03
 TTTTTTTTTTTTTTTTTTTTTTTTTTTTTT DIIS        TELAPSE      435.99 TCPU      433.07
 DIIS TEST: 0.14918E-03 AT SCF   CYCLE   8 - DIIS ACTIVE - HISTORY:     8 CYCLES
 TTTTTTTTTTTTTTTTTTTTTTTTTTTTTT FDIK        TELAPSE      437.74 TCPU      434.81
 INSULATING STATE
 TOP OF VALENCE BANDS -    BAND    220; K   13; EIG -1.8382259E-01 AU
 TOP OF VALENCE BANDS -    BAND    220; K    1; EIG -1.9314693E-01 AU
 BOTTOM OF VIRTUAL BANDS - BAND    221; K   43; EIG -7.3683096E-03 AU
 INDIRECT ENERGY BAND GAP:   4.8016 eV
 BOTTOM OF VIRTUAL BANDS - BAND    221; K    1; EIG -5.2061717E-03 AU
 TTTTTTTTTTTTTTTTTTTTTTTTTTTTTT PDIG        TELAPSE      438.28 TCPU      435.35
 CHARGE NORMALIZATION FACTOR   1.00000000
 TOTAL ATOMIC CHARGES:
  10.7504587  10.7504587  10.7504891  10.7504891  23.1420212  23.1420212
  23.1419936  23.1419936  23.1393456  23.1393456  23.1394055  23.1394055
   8.8799923   8.8799923   8.8805675   8.8805675   8.7643135   8.7643135
   8.7643289   8.7643289   8.8799361   8.8799361   8.8805798   8.8805798
   8.7786033   8.7786033   8.7924272   8.7924272   8.8722733   8.8722733
   8.8722943   8.8722943   8.7786042   8.7786042   8.7923661   8.7923661
 TTTTTTTTTTTTTTTTTTTTTTTTTTTTTT MOQGAD      TELAPSE      438.29 TCPU      435.36
 TTTTTTTTTTTTTTTTTTTTTTTTTTTTTT SHELLXN     TELAPSE      476.33 TCPU      473.39
 TTTTTTTTTTTTTTTTTTTTTTTTTTTTTT MONMO3      TELAPSE      476.71 TCPU      473.77
 NUMERICALLY INTEGRATED DENSITY    439.9999697097
 TTTTTTTTTTTTTTTTTTTTTTTTTTTTTT NUMDFT      TELAPSE      480.89 TCPU      477.94
 CYC   9 ETOT(AU) -4.968766265759E+03 DETOT -6.22E-06 tst  3.17E-08 PX  1.25E-03
 TTTTTTTTTTTTTTTTTTTTTTTTTTTTTT DIIS        TELAPSE      480.96 TCPU      478.01
 DIIS TEST: 0.33706E-04 AT SCF   CYCLE   9 - DIIS ACTIVE - HISTORY:     9 CYCLES
 TTTTTTTTTTTTTTTTTTTTTTTTTTTTTT FDIK        TELAPSE      482.65 TCPU      479.70
 INSULATING STATE
 TOP OF VALENCE BANDS -    BAND    220; K   13; EIG -1.8382324E-01 AU
 TOP OF VALENCE BANDS -    BAND    220; K    1; EIG -1.9317242E-01 AU
 BOTTOM OF VIRTUAL BANDS - BAND    221; K   43; EIG -7.3328989E-03 AU
 INDIRECT ENERGY BAND GAP:   4.8025 eV
 BOTTOM OF VIRTUAL BANDS - BAND    221; K    1; EIG -5.1740291E-03 AU
 TTTTTTTTTTTTTTTTTTTTTTTTTTTTTT PDIG        TELAPSE      483.20 TCPU      480.24
 CHARGE NORMALIZATION FACTOR   1.00000000
 TOTAL ATOMIC CHARGES:
  10.7505501  10.7505501  10.7505818  10.7505818  23.1434670  23.1434670
  23.1434400  23.1434400  23.1377085  23.1377085  23.1377682  23.1377682
   8.8801087   8.8801087   8.8802079   8.8802079   8.7638570   8.7638570
   8.7638742   8.7638742   8.8800524   8.8800524   8.8802195   8.8802195
   8.7778330   8.7778330   8.7935922   8.7935922   8.8726771   8.8726771
   8.8726983   8.8726983   8.7778344   8.7778344   8.7935296   8.7935296
 TTTTTTTTTTTTTTTTTTTTTTTTTTTTTT MOQGAD      TELAPSE      483.21 TCPU      480.25
 TTTTTTTTTTTTTTTTTTTTTTTTTTTTTT SHELLXN     TELAPSE      521.20 TCPU      518.17
 TTTTTTTTTTTTTTTTTTTTTTTTTTTTTT MONMO3      TELAPSE      521.59 TCPU      518.56
 NUMERICALLY INTEGRATED DENSITY    439.9999697121
 TTTTTTTTTTTTTTTTTTTTTTTTTTTTTT NUMDFT      TELAPSE      525.93 TCPU      522.89
 CYC  10 ETOT(AU) -4.968766267082E+03 DETOT -1.32E-06 tst  1.64E-08 PX  6.61E-04
 TTTTTTTTTTTTTTTTTTTTTTTTTTTTTT DIIS        TELAPSE      526.01 TCPU      522.97
 DIIS TEST: 0.24737E-04 AT SCF   CYCLE  10 - DIIS ACTIVE - HISTORY:    10 CYCLES
 TTTTTTTTTTTTTTTTTTTTTTTTTTTTTT FDIK        TELAPSE      527.86 TCPU      524.81
 INSULATING STATE
 TOP OF VALENCE BANDS -    BAND    220; K   13; EIG -1.8384268E-01 AU
 TOP OF VALENCE BANDS -    BAND    220; K    1; EIG -1.9317983E-01 AU
 BOTTOM OF VIRTUAL BANDS - BAND    221; K   43; EIG -7.3583755E-03 AU
 INDIRECT ENERGY BAND GAP:   4.8024 eV
 BOTTOM OF VIRTUAL BANDS - BAND    221; K    1; EIG -5.1844267E-03 AU
 TTTTTTTTTTTTTTTTTTTTTTTTTTTTTT PDIG        TELAPSE      528.41 TCPU      525.36
 CHARGE NORMALIZATION FACTOR   1.00000000
 TOTAL ATOMIC CHARGES:
  10.7504499  10.7504499  10.7504806  10.7504806  23.1428825  23.1428825
  23.1428339  23.1428339  23.1384708  23.1384708  23.1385215  23.1385215
   8.8803441   8.8803441   8.8801754   8.8801754   8.7640484   8.7640484
   8.7640777   8.7640777   8.8803046   8.8803046   8.8801923   8.8801923
   8.7783433   8.7783433   8.7927335   8.7927335   8.8725419   8.8725419
   8.8725807   8.8725807   8.7783343   8.7783343   8.7926846   8.7926846
 TTTTTTTTTTTTTTTTTTTTTTTTTTTTTT MOQGAD      TELAPSE      528.42 TCPU      525.37
 TTTTTTTTTTTTTTTTTTTTTTTTTTTTTT SHELLXN     TELAPSE      566.43 TCPU      563.37
 TTTTTTTTTTTTTTTTTTTTTTTTTTTTTT MONMO3      TELAPSE      566.82 TCPU      563.75
 NUMERICALLY INTEGRATED DENSITY    439.9999697115
 TTTTTTTTTTTTTTTTTTTTTTTTTTTTTT NUMDFT      TELAPSE      571.00 TCPU      567.93
 CYC  11 ETOT(AU) -4.968766268944E+03 DETOT -1.86E-06 tst  4.63E-09 PX  3.30E-04
 TTTTTTTTTTTTTTTTTTTTTTTTTTTTTT DIIS        TELAPSE      571.07 TCPU      568.00
 DIIS TEST: 0.37698E-05 AT SCF   CYCLE  11 - DIIS ACTIVE - HISTORY:    11 CYCLES
 TTTTTTTTTTTTTTTTTTTTTTTTTTTTTT FDIK        TELAPSE      572.73 TCPU      569.65
 INSULATING STATE
 TOP OF VALENCE BANDS -    BAND    220; K   13; EIG -1.8382914E-01 AU
 TOP OF VALENCE BANDS -    BAND    220; K    1; EIG -1.9316695E-01 AU
 BOTTOM OF VIRTUAL BANDS - BAND    221; K   43; EIG -7.3565388E-03 AU
 INDIRECT ENERGY BAND GAP:   4.8021 eV
 BOTTOM OF VIRTUAL BANDS - BAND    221; K    1; EIG -5.2053310E-03 AU
 TTTTTTTTTTTTTTTTTTTTTTTTTTTTTT PDIG        TELAPSE      573.28 TCPU      570.20
 CHARGE NORMALIZATION FACTOR   1.00000000
 TOTAL ATOMIC CHARGES:
  10.7504617  10.7504617  10.7504936  10.7504936  23.1427667  23.1427667
  23.1427269  23.1427269  23.1385602  23.1385602  23.1386167  23.1386167
   8.8798693   8.8798693   8.8805317   8.8805317   8.7640849   8.7640849
   8.7641048   8.7641048   8.8798237   8.8798237   8.8805432   8.8805432
   8.7779994   8.7779994   8.7932957   8.7932957   8.8724319   8.8724319
   8.8724535   8.8724535   8.7780021   8.7780021   8.7932340   8.7932340
 TTTTTTTTTTTTTTTTTTTTTTTTTTTTTT MOQGAD      TELAPSE      573.29 TCPU      570.21
 TTTTTTTTTTTTTTTTTTTTTTTTTTTTTT SHELLXN     TELAPSE      611.36 TCPU      608.28
 TTTTTTTTTTTTTTTTTTTTTTTTTTTTTT MONMO3      TELAPSE      611.75 TCPU      608.66
 NUMERICALLY INTEGRATED DENSITY    439.9999697105
 TTTTTTTTTTTTTTTTTTTTTTTTTTTTTT NUMDFT      TELAPSE      615.95 TCPU      612.86
 CYC  12 ETOT(AU) -4.968766268627E+03 DETOT  3.16E-07 tst  3.60E-09 PX  1.50E-04
 TTTTTTTTTTTTTTTTTTTTTTTTTTTTTT DIIS        TELAPSE      616.03 TCPU      612.93
 DIIS TEST: 0.53208E-05 AT SCF   CYCLE  12 - DIIS ACTIVE - HISTORY:    12 CYCLES
 TTTTTTTTTTTTTTTTTTTTTTTTTTTTTT FDIK        TELAPSE      617.69 TCPU      614.59
 INSULATING STATE
 TOP OF VALENCE BANDS -    BAND    220; K   13; EIG -1.8382993E-01 AU
 TOP OF VALENCE BANDS -    BAND    220; K    1; EIG -1.9316600E-01 AU
 BOTTOM OF VIRTUAL BANDS - BAND    221; K   43; EIG -7.3494772E-03 AU
 INDIRECT ENERGY BAND GAP:   4.8023 eV
 BOTTOM OF VIRTUAL BANDS - BAND    221; K    1; EIG -5.1838840E-03 AU
 TTTTTTTTTTTTTTTTTTTTTTTTTTTTTT PDIG        TELAPSE      618.24 TCPU      615.14
 CHARGE NORMALIZATION FACTOR   1.00000000
 TOTAL ATOMIC CHARGES:
  10.7504801  10.7504801  10.7505120  10.7505120  23.1429152  23.1429152
  23.1428793  23.1428793  23.1383819  23.1383819  23.1384400  23.1384400
   8.8801729   8.8801729   8.8802642   8.8802642   8.7640305   8.7640305
   8.7640486   8.7640486   8.8801231   8.8801231   8.8802760   8.8802760
   8.7782211   8.7782211   8.7929921   8.7929921   8.8725452   8.8725452
   8.8725643   8.8725643   8.7782236   8.7782236   8.7929301   8.7929301
 TTTTTTTTTTTTTTTTTTTTTTTTTTTTTT MOQGAD      TELAPSE      618.26 TCPU      615.15
 TTTTTTTTTTTTTTTTTTTTTTTTTTTTTT SHELLXN     TELAPSE      656.33 TCPU      653.21
 TTTTTTTTTTTTTTTTTTTTTTTTTTTTTT MONMO3      TELAPSE      656.71 TCPU      653.59
 NUMERICALLY INTEGRATED DENSITY    439.9999697115
 TTTTTTTTTTTTTTTTTTTTTTTTTTTTTT NUMDFT      TELAPSE      660.97 TCPU      657.84
 CYC  13 ETOT(AU) -4.968766269307E+03 DETOT -6.80E-07 tst  1.38E-09 PX  1.11E-04
 TTTTTTTTTTTTTTTTTTTTTTTTTTTTTT DIIS        TELAPSE      661.04 TCPU      657.91
 DIIS TEST: 0.52149E-06 AT SCF   CYCLE  13 - DIIS ACTIVE - HISTORY:    13 CYCLES
 TTTTTTTTTTTTTTTTTTTTTTTTTTTTTT FDIK        TELAPSE      663.27 TCPU      660.13
 INSULATING STATE
 TOP OF VALENCE BANDS -    BAND    220; K   13; EIG -1.8383517E-01 AU
 TOP OF VALENCE BANDS -    BAND    220; K    1; EIG -1.9317683E-01 AU
 BOTTOM OF VIRTUAL BANDS - BAND    221; K   43; EIG -7.3526205E-03 AU
 INDIRECT ENERGY BAND GAP:   4.8023 eV
 BOTTOM OF VIRTUAL BANDS - BAND    221; K    1; EIG -5.1877125E-03 AU
 TTTTTTTTTTTTTTTTTTTTTTTTTTTTTT PDIG        TELAPSE      663.81 TCPU      660.67
 CHARGE NORMALIZATION FACTOR   1.00000000
 TOTAL ATOMIC CHARGES:
  10.7504670  10.7504670  10.7504965  10.7504965  23.1428791  23.1428791
  23.1428363  23.1428363  23.1384503  23.1384503  23.1385004  23.1385004
   8.8801636   8.8801636   8.8803221   8.8803221   8.7640545   8.7640545
   8.7640837   8.7640837   8.8801134   8.8801134   8.8803432   8.8803432
   8.7781770   8.7781770   8.7929798   8.7929798   8.8724963   8.8724963
   8.8725403   8.8725403   8.7781589   8.7781589   8.7929375   8.7929375
 TTTTTTTTTTTTTTTTTTTTTTTTTTTTTT MOQGAD      TELAPSE      663.83 TCPU      660.69
 TTTTTTTTTTTTTTTTTTTTTTTTTTTTTT SHELLXN     TELAPSE      701.86 TCPU      698.71
 TTTTTTTTTTTTTTTTTTTTTTTTTTTTTT MONMO3      TELAPSE      702.24 TCPU      699.09
 NUMERICALLY INTEGRATED DENSITY    439.9999697107
 TTTTTTTTTTTTTTTTTTTTTTTTTTTTTT NUMDFT      TELAPSE      706.60 TCPU      703.45
 CYC  14 ETOT(AU) -4.968766269325E+03 DETOT -1.71E-08 tst  3.48E-11 PX  2.87E-05
 TTTTTTTTTTTTTTTTTTTTTTTTTTTTTT DIIS        TELAPSE      706.80 TCPU      703.64
 DIIS TEST: 0.71047E-07 AT SCF   CYCLE  14 - DIIS ACTIVE - HISTORY:    14 CYCLES
 TTTTTTTTTTTTTTTTTTTTTTTTTTTTTT FDIK        TELAPSE      708.51 TCPU      705.35
 INSULATING STATE
 TOP OF VALENCE BANDS -    BAND    220; K   13; EIG -1.8383002E-01 AU
 TOP OF VALENCE BANDS -    BAND    220; K    1; EIG -1.9316223E-01 AU
 BOTTOM OF VIRTUAL BANDS - BAND    221; K   43; EIG -7.3523888E-03 AU
 INDIRECT ENERGY BAND GAP:   4.8022 eV
 BOTTOM OF VIRTUAL BANDS - BAND    221; K    1; EIG -5.1881298E-03 AU
 TTTTTTTTTTTTTTTTTTTTTTTTTTTTTT PDIG        TELAPSE      709.06 TCPU      705.90
 CHARGE NORMALIZATION FACTOR   1.00000000
 TOTAL ATOMIC CHARGES:
  10.7504681  10.7504681  10.7505040  10.7505040  23.1429167  23.1429167
  23.1428824  23.1428824  23.1383939  23.1383939  23.1384590  23.1384590
   8.8801308   8.8801308   8.8802711   8.8802711   8.7640329   8.7640329
   8.7640316   8.7640316   8.8800960   8.8800960   8.8802591   8.8802591
   8.7782072   8.7782072   8.7930409   8.7930409   8.8725641   8.8725641
   8.8725476   8.8725476   8.7782528   8.7782528   8.7929420   8.7929420
 TTTTTTTTTTTTTTTTTTTTTTTTTTTTTT MOQGAD      TELAPSE      709.07 TCPU      705.91
 TTTTTTTTTTTTTTTTTTTTTTTTTTTTTT SHELLXN     TELAPSE      747.11 TCPU      743.93
 TTTTTTTTTTTTTTTTTTTTTTTTTTTTTT MONMO3      TELAPSE      747.50 TCPU      744.32
 NUMERICALLY INTEGRATED DENSITY    439.9999697119
 TTTTTTTTTTTTTTTTTTTTTTTTTTTTTT NUMDFT      TELAPSE      751.84 TCPU      748.65
 CYC  15 ETOT(AU) -4.968766269321E+03 DETOT  3.45E-09 tst  1.09E-10 PX  2.18E-05
 TTTTTTTTTTTTTTTTTTTTTTTTTTTTTT DIIS        TELAPSE      751.93 TCPU      748.73
 DIIS TEST: 0.13786E-06 AT SCF   CYCLE  15 - DIIS ACTIVE - HISTORY:    15 CYCLES
 TTTTTTTTTTTTTTTTTTTTTTTTTTTTTT FDIK        TELAPSE      753.71 TCPU      750.51
 INSULATING STATE
 TOP OF VALENCE BANDS -    BAND    220; K   13; EIG -1.8383216E-01 AU
 TOP OF VALENCE BANDS -    BAND    220; K    1; EIG -1.9316972E-01 AU
 BOTTOM OF VIRTUAL BANDS - BAND    221; K   43; EIG -7.3517503E-03 AU
 INDIRECT ENERGY BAND GAP:   4.8023 eV
 BOTTOM OF VIRTUAL BANDS - BAND    221; K    1; EIG -5.1871022E-03 AU
 TTTTTTTTTTTTTTTTTTTTTTTTTTTTTT PDIG        TELAPSE      754.26 TCPU      751.06
 CHARGE NORMALIZATION FACTOR   1.00000000
 TOTAL ATOMIC CHARGES:
  10.7504726  10.7504726  10.7505010  10.7505010  23.1428926  23.1428926
  23.1428596  23.1428596  23.1384216  23.1384216  23.1384775  23.1384775
   8.8801629   8.8801629   8.8802865   8.8802865   8.7640371   8.7640371
   8.7640676   8.7640676   8.8800921   8.8800921   8.8803182   8.8803182
   8.7782104   8.7782104   8.7929915   8.7929915   8.8725156   8.8725156
   8.8725553   8.8725553   8.7781848   8.7781848   8.7929531   8.7929531
 TTTTTTTTTTTTTTTTTTTTTTTTTTTTTT MOQGAD      TELAPSE      754.27 TCPU      751.07
 TTTTTTTTTTTTTTTTTTTTTTTTTTTTTT SHELLXN     TELAPSE      792.30 TCPU      789.09
 TTTTTTTTTTTTTTTTTTTTTTTTTTTTTT MONMO3      TELAPSE      792.69 TCPU      789.47
 NUMERICALLY INTEGRATED DENSITY    439.9999697112
 TTTTTTTTTTTTTTTTTTTTTTTTTTTTTT NUMDFT      TELAPSE      796.87 TCPU      793.65
 CYC  16 ETOT(AU) -4.968766269330E+03 DETOT -8.86E-09 tst  3.51E-11 PX  1.79E-05
 TTTTTTTTTTTTTTTTTTTTTTTTTTTTTT DIIS        TELAPSE      797.01 TCPU      793.79
 DIIS TEST: 0.24948E-07 AT SCF   CYCLE  16 - DIIS ACTIVE - HISTORY:    16 CYCLES
 TTTTTTTTTTTTTTTTTTTTTTTTTTTTTT FDIK        TELAPSE      798.97 TCPU      795.70
 INSULATING STATE
 TOP OF VALENCE BANDS -    BAND    220; K   13; EIG -1.8383276E-01 AU
 TOP OF VALENCE BANDS -    BAND    220; K    1; EIG -1.9317125E-01 AU
 BOTTOM OF VIRTUAL BANDS - BAND    221; K   43; EIG -7.3518642E-03 AU
 INDIRECT ENERGY BAND GAP:   4.8023 eV
 BOTTOM OF VIRTUAL BANDS - BAND    221; K    1; EIG -5.1871384E-03 AU
 TTTTTTTTTTTTTTTTTTTTTTTTTTTTTT PDIG        TELAPSE      799.51 TCPU      796.25
 CHARGE NORMALIZATION FACTOR   1.00000000
 TOTAL ATOMIC CHARGES:
  10.7504688  10.7504688  10.7505028  10.7505028  23.1428939  23.1428939
  23.1428506  23.1428506  23.1384272  23.1384272  23.1384819  23.1384819
   8.8801421   8.8801421   8.8803132   8.8803132   8.7640525   8.7640525
   8.7640601   8.7640601   8.8801181   8.8801181   8.8803044   8.8803044
   8.7781793   8.7781793   8.7930083   8.7930083   8.8725260   8.8725260
   8.8725379   8.8725379   8.7782036   8.7782036   8.7929292   8.7929292
 TTTTTTTTTTTTTTTTTTTTTTTTTTTTTT MOQGAD      TELAPSE      799.53 TCPU      796.26
 TTTTTTTTTTTTTTTTTTTTTTTTTTTTTT SHELLXN     TELAPSE      837.55 TCPU      834.26
 TTTTTTTTTTTTTTTTTTTTTTTTTTTTTT MONMO3      TELAPSE      837.93 TCPU      834.64
 NUMERICALLY INTEGRATED DENSITY    439.9999697111
 TTTTTTTTTTTTTTTTTTTTTTTTTTTTTT NUMDFT      TELAPSE      842.31 TCPU      839.00
 CYC  17 ETOT(AU) -4.968766269328E+03 DETOT  1.53E-09 tst  2.74E-11 PX  9.17E-06
 TTTTTTTTTTTTTTTTTTTTTTTTTTTTTT DIIS        TELAPSE      842.40 TCPU      839.09
 DIIS TEST: 0.17570E-07 AT SCF   CYCLE  17 - DIIS ACTIVE - HISTORY:    17 CYCLES
 TTTTTTTTTTTTTTTTTTTTTTTTTTTTTT FDIK        TELAPSE      844.08 TCPU      840.77
 INSULATING STATE
 TOP OF VALENCE BANDS -    BAND    220; K   13; EIG -1.8383263E-01 AU
 TOP OF VALENCE BANDS -    BAND    220; K    1; EIG -1.9317025E-01 AU
 BOTTOM OF VIRTUAL BANDS - BAND    221; K   43; EIG -7.3521830E-03 AU
 INDIRECT ENERGY BAND GAP:   4.8023 eV
 BOTTOM OF VIRTUAL BANDS - BAND    221; K    1; EIG -5.1875359E-03 AU
 TTTTTTTTTTTTTTTTTTTTTTTTTTTTTT PDIG        TELAPSE      844.63 TCPU      841.31
 CHARGE NORMALIZATION FACTOR   1.00000000
 TOTAL ATOMIC CHARGES:
  10.7504698  10.7504698  10.7504993  10.7504993  23.1428948  23.1428948
  23.1428571  23.1428571  23.1384237  23.1384237  23.1384807  23.1384807
   8.8801601   8.8801601   8.8802894   8.8802894   8.7640385   8.7640385
   8.7640683   8.7640683   8.8800951   8.8800951   8.8803169   8.8803169
   8.7782021   8.7782021   8.7929963   8.7929963   8.8725199   8.8725199
   8.8725499   8.8725499   8.7781900   8.7781900   8.7929484   8.7929484
 TTTTTTTTTTTTTTTTTTTTTTTTTTTTTT MOQGAD      TELAPSE      844.64 TCPU      841.32
 TTTTTTTTTTTTTTTTTTTTTTTTTTTTTT SHELLXN     TELAPSE      882.70 TCPU      879.37
 TTTTTTTTTTTTTTTTTTTTTTTTTTTTTT MONMO3      TELAPSE      883.08 TCPU      879.75
 NUMERICALLY INTEGRATED DENSITY    439.9999697112
 TTTTTTTTTTTTTTTTTTTTTTTTTTTTTT NUMDFT      TELAPSE      887.42 TCPU      884.08
 CYC  18 ETOT(AU) -4.968766269333E+03 DETOT -4.06E-09 tst  1.97E-11 PX  8.37E-06
 TTTTTTTTTTTTTTTTTTTTTTTTTTTTTT DIIS        TELAPSE      887.58 TCPU      884.24
 DIIS TEST: 0.69721E-08 AT SCF   CYCLE  18 - DIIS ACTIVE - HISTORY:    18 CYCLES
 TTTTTTTTTTTTTTTTTTTTTTTTTTTTTT FDIK        TELAPSE      889.50 TCPU      886.16
 INSULATING STATE
 TOP OF VALENCE BANDS -    BAND    220; K   13; EIG -1.8383253E-01 AU
 TOP OF VALENCE BANDS -    BAND    220; K    1; EIG -1.9317043E-01 AU
 BOTTOM OF VIRTUAL BANDS - BAND    221; K   43; EIG -7.3519552E-03 AU
 INDIRECT ENERGY BAND GAP:   4.8023 eV
 BOTTOM OF VIRTUAL BANDS - BAND    221; K    1; EIG -5.1872906E-03 AU
 TTTTTTTTTTTTTTTTTTTTTTTTTTTTTT PDIG        TELAPSE      890.05 TCPU      886.70
 CHARGE NORMALIZATION FACTOR   1.00000000
 TOTAL ATOMIC CHARGES:
  10.7504699  10.7504699  10.7505011  10.7505011  23.1428934  23.1428934
  23.1428561  23.1428561  23.1384254  23.1384254  23.1384794  23.1384794
   8.8801507   8.8801507   8.8802998   8.8802998   8.7640454   8.7640454
   8.7640624   8.7640624   8.8801061   8.8801061   8.8803101   8.8803101
   8.7781982   8.7781982   8.7929988   8.7929988   8.8725180   8.8725180
   8.8725495   8.8725495   8.7781918   8.7781918   8.7929438   8.7929438
 TTTTTTTTTTTTTTTTTTTTTTTTTTTTTT MOQGAD      TELAPSE      890.06 TCPU      886.71
 TTTTTTTTTTTTTTTTTTTTTTTTTTTTTT SHELLXN     TELAPSE      928.10 TCPU      924.74
 TTTTTTTTTTTTTTTTTTTTTTTTTTTTTT MONMO3      TELAPSE      928.48 TCPU      925.12
 NUMERICALLY INTEGRATED DENSITY    439.9999697112
 TTTTTTTTTTTTTTTTTTTTTTTTTTTTTT NUMDFT      TELAPSE      932.85 TCPU      929.49
 CYC  19 ETOT(AU) -4.968766269331E+03 DETOT  1.14E-09 tst  3.21E-12 PX  4.39E-06
 TTTTTTTTTTTTTTTTTTTTTTTTTTTTTT DIIS        TELAPSE      932.95 TCPU      929.57
 DIIS TEST: 0.13138E-08 AT SCF   CYCLE  19 - DIIS ACTIVE - HISTORY:    19 CYCLES
 TTTTTTTTTTTTTTTTTTTTTTTTTTTTTT FDIK        TELAPSE      934.82 TCPU      931.45
 INSULATING STATE
 TOP OF VALENCE BANDS -    BAND    220; K   13; EIG -1.8383256E-01 AU
 TOP OF VALENCE BANDS -    BAND    220; K    1; EIG -1.9317058E-01 AU
 BOTTOM OF VIRTUAL BANDS - BAND    221; K   43; EIG -7.3519116E-03 AU
 INDIRECT ENERGY BAND GAP:   4.8023 eV
 BOTTOM OF VIRTUAL BANDS - BAND    221; K    1; EIG -5.1872274E-03 AU
 TTTTTTTTTTTTTTTTTTTTTTTTTTTTTT PDIG        TELAPSE      935.37 TCPU      931.99
 CHARGE NORMALIZATION FACTOR   1.00000000
 TOTAL ATOMIC CHARGES:
  10.7504703  10.7504703  10.7505011  10.7505011  23.1428944  23.1428944
  23.1428538  23.1428538  23.1384234  23.1384234  23.1384821  23.1384821
[...]
-rw-r--r-- 1 fbodo linuxusers         0 Dec 28 11:53 fort.8.pe002
-rw-r--r-- 1 fbodo linuxusers         0 Dec 28 11:53 fort.8.pe003
-rw-r--r-- 1 fbodo linuxusers         0 Dec 28 11:53 fort.8.pe004
-rw-r--r-- 1 fbodo linuxusers         0 Dec 28 11:53 fort.8.pe005
-rw-r--r-- 1 fbodo linuxusers         0 Dec 28 11:53 fort.8.pe006
-rw-r--r-- 1 fbodo linuxusers         0 Dec 28 11:53 fort.8.pe007
-rw-r--r-- 1 fbodo linuxusers         0 Dec 28 11:53 fort.8.pe008
-rw-r--r-- 1 fbodo linuxusers         0 Dec 28 11:53 fort.8.pe009
-rw-r--r-- 1 fbodo linuxusers         0 Dec 28 11:53 fort.8.pe010
-rw-r--r-- 1 fbodo linuxusers         0 Dec 28 11:53 fort.8.pe011
-rw-r--r-- 1 fbodo linuxusers         0 Dec 28 11:53 fort.8.pe012
-rw-r--r-- 1 fbodo linuxusers         0 Dec 28 11:53 fort.8.pe013
-rw-r--r-- 1 fbodo linuxusers         0 Dec 28 11:53 fort.8.pe014
-rw-r--r-- 1 fbodo linuxusers         0 Dec 28 11:53 fort.8.pe015
-rw-r--r-- 1 fbodo linuxusers         0 Dec 28 11:53 fort.8.pe016
-rw-r--r-- 1 fbodo linuxusers         0 Dec 28 11:53 fort.8.pe017
-rw-r--r-- 1 fbodo linuxusers         0 Dec 28 11:53 fort.8.pe018
-rw-r--r-- 1 fbodo linuxusers         0 Dec 28 11:53 fort.8.pe019
-rw-r--r-- 1 fbodo linuxusers         0 Dec 28 11:53 fort.8.pe020
-rw-r--r-- 1 fbodo linuxusers         0 Dec 28 11:53 fort.8.pe021
-rw-r--r-- 1 fbodo linuxusers         0 Dec 28 11:53 fort.8.pe022
-rw-r--r-- 1 fbodo linuxusers         0 Dec 28 11:53 fort.8.pe023
-rw-r--r-- 1 fbodo linuxusers         0 Dec 28 11:53 fort.8.pe024
-rw-r--r-- 1 fbodo linuxusers         0 Dec 28 11:53 fort.8.pe025
-rw-r--r-- 1 fbodo linuxusers         0 Dec 28 11:53 fort.8.pe026
-rw-r--r-- 1 fbodo linuxusers         0 Dec 28 11:53 fort.8.pe027
-rw-r--r-- 1 fbodo linuxusers         0 Dec 28 11:53 fort.8.pe028
-rw-r--r-- 1 fbodo linuxusers         0 Dec 28 11:53 fort.8.pe029
-rw-r--r-- 1 fbodo linuxusers         0 Dec 28 11:53 fort.8.pe030
-rw-r--r-- 1 fbodo linuxusers         0 Dec 28 11:53 fort.8.pe031
-rw-r--r-- 1 fbodo linuxusers         0 Dec 28 11:53 fort.8.pe032
-rw-r--r-- 1 fbodo linuxusers         0 Dec 28 11:53 fort.8.pe033
-rw-r--r-- 1 fbodo linuxusers         0 Dec 28 11:53 fort.8.pe034
-rw-r--r-- 1 fbodo linuxusers         0 Dec 28 11:53 fort.8.pe035
-rw-r--r-- 1 fbodo linuxusers   5068936 Dec 28 23:49 fort.8.pe036
-rw-r--r-- 1 fbodo linuxusers  10137864 Dec 28 23:49 fort.8.pe037
-rw-r--r-- 1 fbodo linuxusers  10137864 Dec 28 23:49 fort.8.pe038
-rw-r--r-- 1 fbodo linuxusers   5068936 Dec 28 23:49 fort.8.pe039
-rw-r--r-- 1 fbodo linuxusers   2534472 Dec 28 23:49 fort.8.pe040
-rw-r--r-- 1 fbodo linuxusers   2534472 Dec 28 23:49 fort.8.pe041
-rw-r--r-- 1 fbodo linuxusers  10137864 Dec 28 23:49 fort.8.pe042
-rw-r--r-- 1 fbodo linuxusers  10137864 Dec 28 23:49 fort.8.pe043
-rw-r--r-- 1 fbodo linuxusers   2534472 Dec 28 23:49 fort.8.pe044
-rw-r--r-- 1 fbodo linuxusers   2534472 Dec 28 23:49 fort.8.pe045
-rw-r--r-- 1 fbodo linuxusers   2534472 Dec 28 23:49 fort.8.pe046
-rw-r--r-- 1 fbodo linuxusers   2534472 Dec 28 23:49 fort.8.pe047
-rw-r--r-- 1 fbodo linuxusers  10137864 Dec 28 23:49 fort.8.pe048
-rw-r--r-- 1 fbodo linuxusers  10137864 Dec 28 23:49 fort.8.pe049
-rw-r--r-- 1 fbodo linuxusers   2534472 Dec 28 23:49 fort.8.pe050
-rw-r--r-- 1 fbodo linuxusers   2534472 Dec 28 23:49 fort.8.pe051
-rw-r--r-- 1 fbodo linuxusers   1267240 Dec 28 23:49 fort.8.pe052
-rw-r--r-- 1 fbodo linuxusers   1267240 Dec 28 23:49 fort.8.pe053
-rw-r--r-- 1 fbodo linuxusers  10137864 Dec 28 23:49 fort.8.pe054
-rw-r--r-- 1 fbodo linuxusers  10137864 Dec 28 23:49 fort.8.pe055
-rw-r--r-- 1 fbodo linuxusers   1267240 Dec 28 23:49 fort.8.pe056
-rw-r--r-- 1 fbodo linuxusers   1267240 Dec 28 23:49 fort.8.pe057
-rw-r--r-- 1 fbodo linuxusers  10137864 Dec 28 23:49 fort.8.pe058
-rw-r--r-- 1 fbodo linuxusers  10137864 Dec 28 23:49 fort.8.pe059
-rw-r--r-- 1 fbodo linuxusers  10137864 Dec 28 23:49 fort.8.pe060
-rw-r--r-- 1 fbodo linuxusers  10137864 Dec 28 23:49 fort.8.pe061
-rw-r--r-- 1 fbodo linuxusers  10137864 Dec 28 23:49 fort.8.pe062
-rw-r--r-- 1 fbodo linuxusers  10137864 Dec 28 23:49 fort.8.pe063
-rw-r--r-- 1 fbodo linuxusers  10137864 Dec 28 23:49 fort.8.pe064
-rw-r--r-- 1 fbodo linuxusers  10137864 Dec 28 23:49 fort.8.pe065
-rw-r--r-- 1 fbodo linuxusers  10137864 Dec 28 23:49 fort.8.pe066
-rw-r--r-- 1 fbodo linuxusers  10137864 Dec 28 23:49 fort.8.pe067
-rw-r--r-- 1 fbodo linuxusers  10137864 Dec 28 23:49 fort.8.pe068
-rw-r--r-- 1 fbodo linuxusers  10137864 Dec 28 23:49 fort.8.pe069
-rw-r--r-- 1 fbodo linuxusers  10137864 Dec 28 23:49 fort.8.pe070
-rw-r--r-- 1 fbodo linuxusers  10137864 Dec 28 23:49 fort.8.pe071
-rw-r--r-- 1 fbodo linuxusers  10137864 Dec 28 23:49 fort.8.pe072
-rw-r--r-- 1 fbodo linuxusers  10137864 Dec 28 23:49 fort.8.pe073
-rw-r--r-- 1 fbodo linuxusers  10137864 Dec 28 23:49 fort.8.pe074
-rw-r--r-- 1 fbodo linuxusers  10137864 Dec 28 23:49 fort.8.pe075
-rw-r--r-- 1 fbodo linuxusers  10137864 Dec 28 23:49 fort.8.pe076
-rw-r--r-- 1 fbodo linuxusers  10137864 Dec 28 23:49 fort.8.pe077
-rw-r--r-- 1 fbodo linuxusers  10137864 Dec 28 23:49 fort.8.pe078
-rw-r--r-- 1 fbodo linuxusers  10137864 Dec 28 23:49 fort.8.pe079
-rw-r--r-- 1 fbodo linuxusers  10137864 Dec 28 23:49 fort.8.pe080
-rw-r--r-- 1 fbodo linuxusers  10137864 Dec 28 23:49 fort.8.pe081
-rw-r--r-- 1 fbodo linuxusers  10137864 Dec 28 23:49 fort.8.pe082
-rw-r--r-- 1 fbodo linuxusers  10137864 Dec 28 23:49 fort.8.pe083
-rw-r--r-- 1 fbodo linuxusers  10137864 Dec 28 23:49 fort.8.pe084
-rw-r--r-- 1 fbodo linuxusers  10137864 Dec 28 23:49 fort.8.pe085
-rw-r--r-- 1 fbodo linuxusers  10137864 Dec 28 23:49 fort.8.pe086
-rw-r--r-- 1 fbodo linuxusers  10137864 Dec 28 23:49 fort.8.pe087
-rw-r--r-- 1 fbodo linuxusers  10137864 Dec 28 23:49 fort.8.pe088
-rw-r--r-- 1 fbodo linuxusers  10137864 Dec 28 23:49 fort.8.pe089
-rw-r--r-- 1 fbodo linuxusers  10137864 Dec 28 23:49 fort.8.pe090
-rw-r--r-- 1 fbodo linuxusers  10137864 Dec 28 23:49 fort.8.pe091
-rw-r--r-- 1 fbodo linuxusers  10137864 Dec 28 23:49 fort.8.pe092
-rw-r--r-- 1 fbodo linuxusers  10137864 Dec 28 23:49 fort.8.pe093
-rw-r--r-- 1 fbodo linuxusers  10137864 Dec 28 23:49 fort.8.pe094
-rw-r--r-- 1 fbodo linuxusers  10137864 Dec 28 23:49 fort.8.pe095
-rw-r--r-- 1 fbodo linuxusers  10137864 Dec 28 23:49 fort.8.pe096
-rw-r--r-- 1 fbodo linuxusers  10137864 Dec 28 23:49 fort.8.pe097
-rw-r--r-- 1 fbodo linuxusers  10137864 Dec 28 23:49 fort.8.pe098
-rw-r--r-- 1 fbodo linuxusers  10137864 Dec 28 23:49 fort.8.pe099
-rw-r--r-- 1 fbodo linuxusers  10137864 Dec 28 23:49 fort.8.pe100
-rw-r--r-- 1 fbodo linuxusers  10137864 Dec 28 23:49 fort.8.pe101
-rw-r--r-- 1 fbodo linuxusers  10137864 Dec 28 23:49 fort.8.pe102
-rw-r--r-- 1 fbodo linuxusers  10137864 Dec 28 23:49 fort.8.pe103
-rw-r--r-- 1 fbodo linuxusers  10137864 Dec 28 23:49 fort.8.pe104
-rw-r--r-- 1 fbodo linuxusers  10137864 Dec 28 23:49 fort.8.pe105
-rw-r--r-- 1 fbodo linuxusers   5068936 Dec 28 23:49 fort.8.pe106
-rw-r--r-- 1 fbodo linuxusers  10137864 Dec 28 23:49 fort.8.pe107
-rw-r--r-- 1 fbodo linuxusers  10137864 Dec 28 23:49 fort.8.pe108
-rw-r--r-- 1 fbodo linuxusers   5068936 Dec 28 23:49 fort.8.pe109
-rw-r--r-- 1 fbodo linuxusers   2534472 Dec 28 23:49 fort.8.pe110
-rw-r--r-- 1 fbodo linuxusers   2534472 Dec 28 23:49 fort.8.pe111
-rw-r--r-- 1 fbodo linuxusers  10137864 Dec 28 23:49 fort.8.pe112
-rw-r--r-- 1 fbodo linuxusers  10137864 Dec 28 23:49 fort.8.pe113
-rw-r--r-- 1 fbodo linuxusers   2534472 Dec 28 23:49 fort.8.pe114
-rw-r--r-- 1 fbodo linuxusers   2534472 Dec 28 23:49 fort.8.pe115
-rw-r--r-- 1 fbodo linuxusers   2534472 Dec 28 23:49 fort.8.pe116
-rw-r--r-- 1 fbodo linuxusers   2534472 Dec 28 23:49 fort.8.pe117
-rw-r--r-- 1 fbodo linuxusers  10137864 Dec 28 23:49 fort.8.pe118
-rw-r--r-- 1 fbodo linuxusers  10137864 Dec 28 23:49 fort.8.pe119
-rw-r--r-- 1 fbodo linuxusers   2534472 Dec 28 23:49 fort.8.pe120
-rw-r--r-- 1 fbodo linuxusers   2534472 Dec 28 23:49 fort.8.pe121
-rw-r--r-- 1 fbodo linuxusers   1267240 Dec 28 23:49 fort.8.pe122
-rw-r--r-- 1 fbodo linuxusers   1267240 Dec 28 23:49 fort.8.pe123
-rw-r--r-- 1 fbodo linuxusers  10137864 Dec 28 23:49 fort.8.pe124
-rw-r--r-- 1 fbodo linuxusers  10137864 Dec 28 23:49 fort.8.pe125
-rw-r--r-- 1 fbodo linuxusers   1267240 Dec 28 23:49 fort.8.pe126
-rw-r--r-- 1 fbodo linuxusers   1267240 Dec 28 23:49 fort.8.pe127
-rw-r----- 1 fbodo linuxusers  15580556 Dec 28 23:56 fort.9
-rw-r--r-- 1 fbodo linuxusers  10653016 Dec 28 23:48 fort.95.pe000
-rw-r--r-- 1 fbodo linuxusers  10653016 Dec 28 23:48 fort.95.pe001
-rw-r--r-- 1 fbodo linuxusers  10653016 Dec 28 23:48 fort.95.pe002
-rw-r--r-- 1 fbodo linuxusers  10653016 Dec 28 23:48 fort.95.pe003
-rw-r--r-- 1 fbodo linuxusers  10653016 Dec 28 23:48 fort.95.pe004
-rw-r--r-- 1 fbodo linuxusers  10653016 Dec 28 23:48 fort.95.pe005
-rw-r--r-- 1 fbodo linuxusers  10653016 Dec 28 23:48 fort.95.pe006
-rw-r--r-- 1 fbodo linuxusers  10653016 Dec 28 23:48 fort.95.pe007
-rw-r--r-- 1 fbodo linuxusers  10653016 Dec 28 23:48 fort.95.pe008
-rw-r--r-- 1 fbodo linuxusers  10653016 Dec 28 23:48 fort.95.pe009
-rw-r--r-- 1 fbodo linuxusers  10653016 Dec 28 23:48 fort.95.pe010
-rw-r--r-- 1 fbodo linuxusers  10653016 Dec 28 23:48 fort.95.pe011
-rw-r--r-- 1 fbodo linuxusers  10653016 Dec 28 23:48 fort.95.pe012
-rw-r--r-- 1 fbodo linuxusers  10653016 Dec 28 23:48 fort.95.pe013
-rw-r--r-- 1 fbodo linuxusers  10653016 Dec 28 23:48 fort.95.pe014
-rw-r--r-- 1 fbodo linuxusers  10653016 Dec 28 23:48 fort.95.pe015
-rw-r--r-- 1 fbodo linuxusers  10653016 Dec 28 23:48 fort.95.pe016
-rw-r--r-- 1 fbodo linuxusers  10653016 Dec 28 23:48 fort.95.pe017
-rw-r--r-- 1 fbodo linuxusers  10653016 Dec 28 23:48 fort.95.pe018
-rw-r--r-- 1 fbodo linuxusers  10653016 Dec 28 23:48 fort.95.pe019
-rw-r--r-- 1 fbodo linuxusers  10653016 Dec 28 23:48 fort.95.pe020
-rw-r--r-- 1 fbodo linuxusers  10653016 Dec 28 23:48 fort.95.pe021
-rw-r--r-- 1 fbodo linuxusers  10653016 Dec 28 23:48 fort.95.pe022
-rw-r--r-- 1 fbodo linuxusers  10653016 Dec 28 23:48 fort.95.pe023
-rw-r--r-- 1 fbodo linuxusers  10653016 Dec 28 23:48 fort.95.pe024
-rw-r--r-- 1 fbodo linuxusers  10653016 Dec 28 23:48 fort.95.pe025
-rw-r--r-- 1 fbodo linuxusers  10653016 Dec 28 23:48 fort.95.pe026
-rw-r--r-- 1 fbodo linuxusers  10653016 Dec 28 23:48 fort.95.pe027
-rw-r--r-- 1 fbodo linuxusers  10653016 Dec 28 23:48 fort.95.pe028
-rw-r--r-- 1 fbodo linuxusers  10653016 Dec 28 23:48 fort.95.pe029
-rw-r--r-- 1 fbodo linuxusers  10653016 Dec 28 23:48 fort.95.pe030
-rw-r--r-- 1 fbodo linuxusers  10653016 Dec 28 23:48 fort.95.pe031
-rw-r--r-- 1 fbodo linuxusers  10653016 Dec 28 23:48 fort.95.pe032
-rw-r--r-- 1 fbodo linuxusers  10653016 Dec 28 23:48 fort.95.pe033
-rw-r--r-- 1 fbodo linuxusers  10653016 Dec 28 23:48 fort.95.pe034
-rw-r--r-- 1 fbodo linuxusers  10653016 Dec 28 23:48 fort.95.pe035
-rw-r--r-- 1 fbodo linuxusers  10653016 Dec 28 23:48 fort.95.pe036
-rw-r--r-- 1 fbodo linuxusers  10653016 Dec 28 23:48 fort.95.pe037
-rw-r--r-- 1 fbodo linuxusers  10653016 Dec 28 23:48 fort.95.pe038
-rw-r--r-- 1 fbodo linuxusers  10653016 Dec 28 23:48 fort.95.pe039
-rw-r--r-- 1 fbodo linuxusers  10653016 Dec 28 23:48 fort.95.pe040
-rw-r--r-- 1 fbodo linuxusers  10653016 Dec 28 23:48 fort.95.pe041
-rw-r--r-- 1 fbodo linuxusers  10653016 Dec 28 23:48 fort.95.pe042
-rw-r--r-- 1 fbodo linuxusers  10653016 Dec 28 23:48 fort.95.pe043
-rw-r--r-- 1 fbodo linuxusers  10653016 Dec 28 23:48 fort.95.pe044
-rw-r--r-- 1 fbodo linuxusers  10653016 Dec 28 23:48 fort.95.pe045
-rw-r--r-- 1 fbodo linuxusers  10653016 Dec 28 23:48 fort.95.pe046
-rw-r--r-- 1 fbodo linuxusers  10653016 Dec 28 23:48 fort.95.pe047
-rw-r--r-- 1 fbodo linuxusers  10653016 Dec 28 23:48 fort.95.pe048
-rw-r--r-- 1 fbodo linuxusers  10653016 Dec 28 23:48 fort.95.pe049
-rw-r--r-- 1 fbodo linuxusers  10653016 Dec 28 23:48 fort.95.pe050
-rw-r--r-- 1 fbodo linuxusers  10653016 Dec 28 23:48 fort.95.pe051
-rw-r--r-- 1 fbodo linuxusers  10653016 Dec 28 23:48 fort.95.pe052
-rw-r--r-- 1 fbodo linuxusers  10653016 Dec 28 23:48 fort.95.pe053
-rw-r--r-- 1 fbodo linuxusers  10653016 Dec 28 23:48 fort.95.pe054
-rw-r--r-- 1 fbodo linuxusers  10653016 Dec 28 23:48 fort.95.pe055
-rw-r--r-- 1 fbodo linuxusers  10653016 Dec 28 23:48 fort.95.pe056
-rw-r--r-- 1 fbodo linuxusers  10653016 Dec 28 23:48 fort.95.pe057
-rw-r--r-- 1 fbodo linuxusers  10653016 Dec 28 23:48 fort.95.pe058
-rw-r--r-- 1 fbodo linuxusers  10653016 Dec 28 23:48 fort.95.pe059
-rw-r--r-- 1 fbodo linuxusers  10653016 Dec 28 23:48 fort.95.pe060
-rw-r--r-- 1 fbodo linuxusers  10653016 Dec 28 23:48 fort.95.pe061
-rw-r--r-- 1 fbodo linuxusers  10653016 Dec 28 23:48 fort.95.pe062
-rw-r--r-- 1 fbodo linuxusers  10653016 Dec 28 23:48 fort.95.pe063
-rw-r--r-- 1 fbodo linuxusers  10653016 Dec 28 23:48 fort.95.pe064
-rw-r--r-- 1 fbodo linuxusers  10653016 Dec 28 23:48 fort.95.pe065
-rw-r--r-- 1 fbodo linuxusers  10653016 Dec 28 23:48 fort.95.pe066
-rw-r--r-- 1 fbodo linuxusers  10653016 Dec 28 23:48 fort.95.pe067
-rw-r--r-- 1 fbodo linuxusers  10653016 Dec 28 23:48 fort.95.pe068
-rw-r--r-- 1 fbodo linuxusers  10653016 Dec 28 23:48 fort.95.pe069
-rw-r--r-- 1 fbodo linuxusers  10653016 Dec 28 23:48 fort.95.pe070
-rw-r--r-- 1 fbodo linuxusers  10653016 Dec 28 23:48 fort.95.pe071
-rw-r--r-- 1 fbodo linuxusers  10653016 Dec 28 23:48 fort.95.pe072
-rw-r--r-- 1 fbodo linuxusers  10653016 Dec 28 23:48 fort.95.pe073
-rw-r--r-- 1 fbodo linuxusers  10653016 Dec 28 23:48 fort.95.pe074
-rw-r--r-- 1 fbodo linuxusers  10653016 Dec 28 23:48 fort.95.pe075
-rw-r--r-- 1 fbodo linuxusers  10653016 Dec 28 23:48 fort.95.pe076
-rw-r--r-- 1 fbodo linuxusers  10653016 Dec 28 23:48 fort.95.pe077
-rw-r--r-- 1 fbodo linuxusers  10653016 Dec 28 23:48 fort.95.pe078
-rw-r--r-- 1 fbodo linuxusers  10653016 Dec 28 23:48 fort.95.pe079
-rw-r--r-- 1 fbodo linuxusers  10653016 Dec 28 23:48 fort.95.pe080
-rw-r--r-- 1 fbodo linuxusers  10653016 Dec 28 23:48 fort.95.pe081
-rw-r--r-- 1 fbodo linuxusers  10653016 Dec 28 23:48 fort.95.pe082
-rw-r--r-- 1 fbodo linuxusers  10653016 Dec 28 23:48 fort.95.pe083
-rw-r--r-- 1 fbodo linuxusers  10653016 Dec 28 23:48 fort.95.pe084
-rw-r--r-- 1 fbodo linuxusers  10653016 Dec 28 23:48 fort.95.pe085
-rw-r--r-- 1 fbodo linuxusers  10653016 Dec 28 23:48 fort.95.pe086
-rw-r--r-- 1 fbodo linuxusers  10653016 Dec 28 23:48 fort.95.pe087
-rw-r--r-- 1 fbodo linuxusers  10653016 Dec 28 23:48 fort.95.pe088
-rw-r--r-- 1 fbodo linuxusers  10653016 Dec 28 23:48 fort.95.pe089
-rw-r--r-- 1 fbodo linuxusers  10653016 Dec 28 23:48 fort.95.pe090
-rw-r--r-- 1 fbodo linuxusers  10653016 Dec 28 23:48 fort.95.pe091
-rw-r--r-- 1 fbodo linuxusers  10653016 Dec 28 23:48 fort.95.pe092
-rw-r--r-- 1 fbodo linuxusers  10653016 Dec 28 23:48 fort.95.pe093
-rw-r--r-- 1 fbodo linuxusers  10653016 Dec 28 23:48 fort.95.pe094
-rw-r--r-- 1 fbodo linuxusers  10653016 Dec 28 23:48 fort.95.pe095
-rw-r--r-- 1 fbodo linuxusers  10653016 Dec 28 23:48 fort.95.pe096
-rw-r--r-- 1 fbodo linuxusers  10653016 Dec 28 23:48 fort.95.pe097
-rw-r--r-- 1 fbodo linuxusers  10653016 Dec 28 23:48 fort.95.pe098
-rw-r--r-- 1 fbodo linuxusers  10653016 Dec 28 23:48 fort.95.pe099
-rw-r--r-- 1 fbodo linuxusers  10653016 Dec 28 23:48 fort.95.pe100
-rw-r--r-- 1 fbodo linuxusers  10653016 Dec 28 23:48 fort.95.pe101
-rw-r--r-- 1 fbodo linuxusers  10653016 Dec 28 23:48 fort.95.pe102
-rw-r--r-- 1 fbodo linuxusers  10653016 Dec 28 23:48 fort.95.pe103
-rw-r--r-- 1 fbodo linuxusers  10653016 Dec 28 23:48 fort.95.pe104
-rw-r--r-- 1 fbodo linuxusers  10653016 Dec 28 23:48 fort.95.pe105
-rw-r--r-- 1 fbodo linuxusers  10653016 Dec 28 23:48 fort.95.pe106
-rw-r--r-- 1 fbodo linuxusers  10653016 Dec 28 23:48 fort.95.pe107
-rw-r--r-- 1 fbodo linuxusers  10653016 Dec 28 23:48 fort.95.pe108
-rw-r--r-- 1 fbodo linuxusers  10653016 Dec 28 23:48 fort.95.pe109
-rw-r--r-- 1 fbodo linuxusers  10653016 Dec 28 23:48 fort.95.pe110
-rw-r--r-- 1 fbodo linuxusers  10653016 Dec 28 23:48 fort.95.pe111
-rw-r--r-- 1 fbodo linuxusers  10653016 Dec 28 23:48 fort.95.pe112
-rw-r--r-- 1 fbodo linuxusers  10653016 Dec 28 23:48 fort.95.pe113
-rw-r--r-- 1 fbodo linuxusers  10653016 Dec 28 23:48 fort.95.pe114
-rw-r--r-- 1 fbodo linuxusers  10653016 Dec 28 23:48 fort.95.pe115
-rw-r--r-- 1 fbodo linuxusers  10653016 Dec 28 23:48 fort.95.pe116
-rw-r--r-- 1 fbodo linuxusers  10653016 Dec 28 23:48 fort.95.pe117
-rw-r--r-- 1 fbodo linuxusers  10653016 Dec 28 23:48 fort.95.pe118
-rw-r--r-- 1 fbodo linuxusers  10653016 Dec 28 23:48 fort.95.pe119
-rw-r--r-- 1 fbodo linuxusers  10653016 Dec 28 23:48 fort.95.pe120
-rw-r--r-- 1 fbodo linuxusers  10653016 Dec 28 23:48 fort.95.pe121
-rw-r--r-- 1 fbodo linuxusers  10653016 Dec 28 23:48 fort.95.pe122
-rw-r--r-- 1 fbodo linuxusers  10653016 Dec 28 23:48 fort.95.pe123
-rw-r--r-- 1 fbodo linuxusers  10653016 Dec 28 23:48 fort.95.pe124
-rw-r--r-- 1 fbodo linuxusers  10653016 Dec 28 23:48 fort.95.pe125
-rw-r--r-- 1 fbodo linuxusers  10653016 Dec 28 23:48 fort.95.pe126
-rw-r--r-- 1 fbodo linuxusers  10653016 Dec 28 23:48 fort.95.pe127
-rw-r--r-- 1 fbodo linuxusers  41007992 Dec 28 23:56 fort.98
-rw-r--r-- 1 fbodo linuxusers     69042 Dec 28 23:56 HESSOPT.DAT
-rw-r----- 1 fbodo linuxusers      1403 Dec 28 11:53 INPUT
-rw-r--r-- 1 fbodo linuxusers      3122 Dec 28 12:15 optc001
-rw-r--r-- 1 fbodo linuxusers      3122 Dec 28 12:35 optc002
-rw-r--r-- 1 fbodo linuxusers      3122 Dec 28 12:56 optc003
-rw-r--r-- 1 fbodo linuxusers      3122 Dec 28 13:13 optc004
-rw-r--r-- 1 fbodo linuxusers      3122 Dec 28 13:33 optc005
-rw-r--r-- 1 fbodo linuxusers      3122 Dec 28 13:54 optc006
-rw-r--r-- 1 fbodo linuxusers      3122 Dec 28 14:14 optc007
-rw-r--r-- 1 fbodo linuxusers      3122 Dec 28 14:35 optc008
-rw-r--r-- 1 fbodo linuxusers      3122 Dec 28 14:52 optc009
-rw-r--r-- 1 fbodo linuxusers      3122 Dec 28 15:15 optc010
-rw-r--r-- 1 fbodo linuxusers      3122 Dec 28 15:36 optc011
-rw-r--r-- 1 fbodo linuxusers      3122 Dec 28 15:58 optc012
-rw-r--r-- 1 fbodo linuxusers      3122 Dec 28 16:20 optc013
-rw-r--r-- 1 fbodo linuxusers      3122 Dec 28 16:41 optc014
-rw-r--r-- 1 fbodo linuxusers      3122 Dec 28 17:01 optc015
-rw-r--r-- 1 fbodo linuxusers      3122 Dec 28 17:23 optc016
-rw-r--r-- 1 fbodo linuxusers      3122 Dec 28 17:45 optc017
-rw-r--r-- 1 fbodo linuxusers      3122 Dec 28 18:06 optc018
-rw-r--r-- 1 fbodo linuxusers      3122 Dec 28 18:27 optc019
-rw-r--r-- 1 fbodo linuxusers      3122 Dec 28 18:49 optc020
-rw-r--r-- 1 fbodo linuxusers      3122 Dec 28 19:11 optc021
-rw-r--r-- 1 fbodo linuxusers      3122 Dec 28 19:33 optc022
-rw-r--r-- 1 fbodo linuxusers      3122 Dec 28 19:53 optc023
-rw-r--r-- 1 fbodo linuxusers      3122 Dec 28 20:11 optc024
-rw-r--r-- 1 fbodo linuxusers      3122 Dec 28 20:31 optc025
-rw-r--r-- 1 fbodo linuxusers      3122 Dec 28 20:49 optc026
-rw-r--r-- 1 fbodo linuxusers      3122 Dec 28 21:05 optc027
-rw-r--r-- 1 fbodo linuxusers      3122 Dec 28 21:23 optc028
-rw-r--r-- 1 fbodo linuxusers      3122 Dec 28 21:39 optc029
-rw-r--r-- 1 fbodo linuxusers      3122 Dec 28 21:53 optc030
-rw-r--r-- 1 fbodo linuxusers      3122 Dec 28 22:10 optc031
-rw-r--r-- 1 fbodo linuxusers      3122 Dec 28 22:21 optc032
-rw-r--r-- 1 fbodo linuxusers      3122 Dec 28 22:36 optc033
-rw-r--r-- 1 fbodo linuxusers      3122 Dec 28 23:00 optc034
-rw-r--r-- 1 fbodo linuxusers      3122 Dec 28 23:23 optc035
-rw-r--r-- 1 fbodo linuxusers      3122 Dec 28 23:40 optc036
-rw-r--r-- 1 fbodo linuxusers      3122 Dec 28 23:56 optc037
-rw-r--r-- 1 fbodo linuxusers  84805704 Dec 28 23:56 OPTINFO.DAT
-rwxr-xr-x 1 fbodo linuxusers 112779232 Dec 28 11:53 Pcrystal
lrwxrwxrwx 1 fbodo linuxusers        84 Dec 28 11:53 SCFOUT.LOG -> /users/fbodo/Application/fbodo/Fili/Mg(IO3)2/P21/MgIO32_p21_OPT_exp_pbe0d3_9GPa.out2
================================================================================
Copying output file back on run directory...
================================================================================
Removing temporary directory /lustre/scratch/client/users/fbodo/prova/tmp_p3151836 from each node...
Job terminated
