nproc:128
Pcrystal executable in: /users/fbodo/SVN_PUB_NEW/bin/Linux-gfortran_new/std/Pcrystal
Master system: Linux c143 5.15.0-47-generic #51-Ubuntu SMP Thu Aug 11 07:51:15 UTC 2022 x86_64 x86_64 x86_64 GNU/Linux
ls -ltr $BINDIR
total 420340
-rwxr-xr-x 1 fbodo linuxusers 101580248 Oct 28 17:33 properties
-rwxr-xr-x 1 fbodo linuxusers 101643032 Oct 28 17:33 Pproperties
-rwxr-xr-x 1 fbodo linuxusers 112779232 Oct 28 17:33 Pcrystal
-rwxr-xr-x 1 fbodo linuxusers 112716416 Oct 28 17:33 crystal
================================================================================
Module loading in /lustre/scratch/client/users/fbodo/prova/tmp_p1423597
================================================================================
Loading gcc and openmpi modules ...
1) # module load gcc/11.2.0
2) # module load openmpi/4.1.6-a4ksrza
================================================================================
Starting Pcrystal SLURM job
================================================================================
Time: Thu Dec 26 09:39:47 AM CST 2024
SLURM job ID: 16982048
Master hostname: c143
User: fbodo
Input file: MgIO32_p21_OPT_exp_pbe0d3_1GPa.d12
Output file: MgIO32_p21_OPT_exp_pbe0d3_1GPa.out
Number of processors: 128
Nodes list: c143
================================================================================
Creating temporary directory /lustre/scratch/client/users/fbodo/prova/tmp_p1423597 on each node...
Copying input file MgIO32_p21_OPT_exp_pbe0d3_1GPa.d12 on each node...
Copying Pcrystal on each node...
================================================================================
Contents of input file
================================================================================
Mg(IO3)2 P21
CRYSTAL
0 0 0
4
10.91548727     4.68788110    10.98995581  119.792155
18
12    -4.903816837676E-01  4.273869170330E-01  2.556262784018E-01
12    -9.547639890218E-03 -7.248077675227E-02  2.443400395077E-01
53     1.661076262996E-01  4.807825817706E-01  9.414123125874E-02
53     3.339596176091E-01 -1.935219919268E-02  4.058802209579E-01
53    -1.659770605746E-01 -1.314020605946E-02  4.304312004607E-01
53    -3.339858202950E-01  4.868699550421E-01  6.955903939722E-02
 8     3.322670823271E-01 -3.329051462015E-01  1.323521669174E-01
 8     5.271718697705E-02 -3.208400560467E-01 -7.085130211821E-02
 8     1.326129125532E-01 -2.870139036671E-01  2.107663532160E-01
 8     3.674169863429E-01  2.129877897235E-01  2.892769773961E-01
 8     1.678079881077E-01  1.669657686805E-01  3.677268030772E-01
 8     4.473865248759E-01  1.789865079484E-01 -4.291198961688E-01
 8    -3.156838679305E-01  2.116081018715E-01  4.081241508822E-01
 8    -2.426122803150E-02  1.892229221597E-01 -4.204854854803E-01
 8    -1.415297449447E-01  1.534951773087E-01  2.910988562231E-01
 8    -3.584625473646E-01 -3.464435791456E-01  2.088710849815E-01
 8    -1.843122405684E-01 -2.883030060940E-01  9.185919917954E-02
 8    -4.757047049135E-01 -3.108268483786E-01 -7.956305967332E-02
OPTGEOM
EXTPRESS
0.00003398932735
END
BASISSET
POB-TZVP-REV2
DFT
PBE0-D3
HUGEGRID
END
TOLINTEG
9 9 9 9 27
TOLDEE
9
SHRINK
6 6
END
================================================================================
Time: Thu Dec 26 09:39:48 AM CST 2024
Starting Pcrystal job in /lustre/scratch/client/users/fbodo/prova/tmp_p1423597 on each node...
================================================================================

command /hpc/m3/spack/opt/spack/linux-ubuntu22.04-zen3/gcc-11.2.0/openmpi-4.1.6-a4ksrzarq4qdqcx545m6o47ytlwsgqyk/bin/mpirun -np 128 Pcrystal < /lustre/scratch/client/users/fbodo/prova/tmp_p1423597/INPUT
/hpc/m3/spack/opt/spack/linux-ubuntu22.04-zen3/gcc-11.2.0/openmpi-4.1.6-a4ksrzarq4qdqcx545m6o47ytlwsgqyk/bin/mpirun
         128 PROCESSORS WORKING

         
 *******************************************************************************
 *                                                                             *
 *                               CRYSTAL23                                     *
 *                      public : 1.0.1 - October 2022                          *
 *                       HTTP://WWW.CRYSTAL.UNITO.IT                           *
 *                                                                             *
 *                              MAIN AUTHORS                                   *
 *                                                                             *
 *  R. DOVESI(1,11), V.R. SAUNDERS(2), C. ROETTI(1,11), R. ORLANDO(1,11),      *
 *  C.M. ZICOVICH-WILSON(1,3), F. PASCALE(4), B. CIVALLERI(1,11),              *
 *  K. DOLL(5), N.M. HARRISON(6), I.J. BUSH(7), Ph. D'ARCO(8),                 *
 *  M. LLUNELL(9), M. CAUSA'(10), Y. NOEL(8), L. MASCHIO(1,11), A. ERBA(1,11)  *
 *  M. RE'RAT(14), S. CASASSA(1,11), B.G. SEARLE(2), J.K. DESMARAIS(1)         *
 *                                                                             *
 *        CONTRIBUTIONS TO THE CODE HAVE ALSO BEEN GIVEN BY                    *
 *                                                                             *
 *  M. FERRABONE(1,11), M. DE LA PIERRE(1,11), M. FERRERO(1,11),               *
 *  J. BAIMA(1,11), E. ALBANESE(1,11), M.F. PEINTINGER(12), R. BAST(13),       *
 *  B. KIRTMAN(15), V. LACIVITA(1,11), R. DEMICHELIS(1,16)                     *
 *  G. BRANDEBURG(17), S. SALUSTRO(1,11), G. SANSONE(1,11)                     *
 *  M.T. RUGGIERO(18), L.E. DAGA(1), L. DONA'(1), A. COSSARD(1)                *
 *                                                                             *
 * (1) THEORETICAL CHEMISTRY GROUP - UNIVERSITA' DI TORINO - TORINO (ITALY)    *
 * (2) SCIENTIFIC COMPUTING DEPARTMENT - STFC DARESBURY (UK)                   *
 * (3) UNIVERSIDAD AUTONOMA DEL ESTADO DE MORELOS - CUERNAVACA (MEXICO)        *
 * (4) UNIVERSITE' DE LORRAINE - NANCY (FRANCE)                                *
 * (5) UNIVERSITAET STUTTGART- STUTTGART (GERMANY)                             *
 * (6) IMPERIAL COLLEGE - LONDON (UK)                                          *
 * (7) SCIENTIFIC COMPUTING DEPARTMENT - STFC RAL (UK)                         *
 * (8) UPMC - SORBONNE UNIVERSITES - PARIS (FRANCE)                            *
 * (9) UNIVERSIDAD DE BARCELONA - BARCELONA (SPAIN)                            *
 *(10) UNIVERSITA' DI NAPOLI "FEDERICO II" - NAPOLI (ITALY)                    *
 *(11) NIS - NANOSTRUCTURED INTERFACES AND SURFACES - TORINO (ITALY)           *
 *(12) MPI FUER CHEMISCHE ENERGIEKONVERSION - MUELHEIM AN DER RUHR (GERMANY)   *
 *(13) UNIVERSITY OF TROMSO - TROMSO (NORWAY)                                  *
 *(14) UNIVERSITE' DE PAU ET DES PAYS DE L'ADOUR - PAU (FRANCE)                *
 *(15) UNIVERSITY OF CALIFORNIA SANTA BARBARA - SANTA BARBARA (USA)            *
 *(16) CURTIN UNIVERSITY - PERTH (AUSTRALIA)                                   *
 *(17) UNIVERSITY COLLEGE LONDON - LONDON (UK)                                 *
 *(18) UNIVERSITY OF VERMONT - BURLINGTON (USA)                                *
 *                                                                             *
 *******************************************************************************
 EEEEEEEEEE STARTING  DATE 26 12 2024 TIME 09:39:52.0
 Mg(IO3)2 P21                                                                    

 CRYSTAL CALCULATION
 (INPUT ACCORDING TO THE INTERNATIONAL TABLES FOR X-RAY CRYSTALLOGRAPHY)
 CRYSTAL FAMILY                       :  MONOCLINIC  
 CRYSTAL CLASS  (GROTH - 1921)        :  MONOCLINIC SPHENOIDAL                

 SPACE GROUP (NONCENTROSYMMETRIC)     :  P 21            

 LATTICE PARAMETERS  (ANGSTROMS AND DEGREES) - CONVENTIONAL CELL
        A           B           C        ALPHA        BETA       GAMMA
    10.91549     4.68788    10.98996    90.00000   119.79215    90.00000


 NUMBER OF IRREDUCIBLE ATOMS IN THE CONVENTIONAL CELL:   18

 INPUT COORDINATES

 ATOM AT. N.              COORDINATES
   1  12    -4.903816837676E-01  4.273869170330E-01  2.556262784018E-01
   2  12    -9.547639890218E-03 -7.248077675227E-02  2.443400395077E-01
   3  53     1.661076262996E-01  4.807825817706E-01  9.414123125874E-02
   4  53     3.339596176091E-01 -1.935219919268E-02  4.058802209579E-01
   5  53    -1.659770605746E-01 -1.314020605946E-02  4.304312004607E-01
   6  53    -3.339858202950E-01  4.868699550421E-01  6.955903939722E-02
   7   8     3.322670823271E-01 -3.329051462015E-01  1.323521669174E-01
   8   8     5.271718697705E-02 -3.208400560467E-01 -7.085130211821E-02
   9   8     1.326129125532E-01 -2.870139036671E-01  2.107663532160E-01
  10   8     3.674169863429E-01  2.129877897235E-01  2.892769773961E-01
  11   8     1.678079881077E-01  1.669657686805E-01  3.677268030772E-01
  12   8     4.473865248759E-01  1.789865079484E-01 -4.291198961688E-01
  13   8    -3.156838679305E-01  2.116081018715E-01  4.081241508822E-01
  14   8    -2.426122803150E-02  1.892229221597E-01 -4.204854854803E-01
  15   8    -1.415297449447E-01  1.534951773087E-01  2.910988562231E-01
  16   8    -3.584625473646E-01 -3.464435791456E-01  2.088710849815E-01
  17   8    -1.843122405684E-01 -2.883030060940E-01  9.185919917954E-02
  18   8    -4.757047049135E-01 -3.108268483786E-01 -7.956305967332E-02

 *******************************************************************************

 << INFORMATION >>: FROM NOW ON, ALL COORDINATES REFER TO THE PRIMITIVE CELL

 *******************************************************************************

 LATTICE PARAMETERS  (ANGSTROMS AND DEGREES) - PRIMITIVE CELL
       A          B          C        ALPHA      BETA     GAMMA        VOLUME
   10.91549    4.68788   10.98996    90.00000 119.79216  90.00000    488.036235

 COORDINATES OF THE EQUIVALENT ATOMS (FRACTIONAL UNITS)

 N. ATOM EQUIV AT. N.          X                  Y                  Z

   1   1   1   12 MG   -4.90381683768E-01  4.27386917033E-01  2.55626278402E-01
   2   1   2   12 MG    4.90381683768E-01 -7.26130829670E-02 -2.55626278402E-01

   3   2   1   12 MG   -9.54763989022E-03 -7.24807767523E-02  2.44340039508E-01
   4   2   2   12 MG    9.54763989022E-03  4.27519223248E-01 -2.44340039508E-01

   5   3   1   53 I     1.66107626300E-01  4.80782581771E-01  9.41412312587E-02
   6   3   2   53 I    -1.66107626300E-01 -1.92174182294E-02 -9.41412312587E-02

   7   4   1   53 I     3.33959617609E-01 -1.93521991927E-02  4.05880220958E-01
   8   4   2   53 I    -3.33959617609E-01  4.80647800807E-01 -4.05880220958E-01

   9   5   1   53 I    -1.65977060575E-01 -1.31402060595E-02  4.30431200461E-01
  10   5   2   53 I     1.65977060575E-01  4.86859793941E-01 -4.30431200461E-01

  11   6   1   53 I    -3.33985820295E-01  4.86869955042E-01  6.95590393972E-02
  12   6   2   53 I     3.33985820295E-01 -1.31300449579E-02 -6.95590393972E-02

  13   7   1    8 O     3.32267082327E-01 -3.32905146202E-01  1.32352166917E-01
  14   7   2    8 O    -3.32267082327E-01  1.67094853798E-01 -1.32352166917E-01

  15   8   1    8 O     5.27171869771E-02 -3.20840056047E-01 -7.08513021182E-02
  16   8   2    8 O    -5.27171869771E-02  1.79159943953E-01  7.08513021182E-02

  17   9   1    8 O     1.32612912553E-01 -2.87013903667E-01  2.10766353216E-01
  18   9   2    8 O    -1.32612912553E-01  2.12986096333E-01 -2.10766353216E-01

  19  10   1    8 O     3.67416986343E-01  2.12987789723E-01  2.89276977396E-01
  20  10   2    8 O    -3.67416986343E-01 -2.87012210277E-01 -2.89276977396E-01

  21  11   1    8 O     1.67807988108E-01  1.66965768681E-01  3.67726803077E-01
  22  11   2    8 O    -1.67807988108E-01 -3.33034231320E-01 -3.67726803077E-01

  23  12   1    8 O     4.47386524876E-01  1.78986507948E-01 -4.29119896169E-01
  24  12   2    8 O    -4.47386524876E-01 -3.21013492052E-01  4.29119896169E-01

  25  13   1    8 O    -3.15683867931E-01  2.11608101872E-01  4.08124150882E-01
  26  13   2    8 O     3.15683867931E-01 -2.88391898128E-01 -4.08124150882E-01

  27  14   1    8 O    -2.42612280315E-02  1.89222922160E-01 -4.20485485480E-01
  28  14   2    8 O     2.42612280315E-02 -3.10777077840E-01  4.20485485480E-01

  29  15   1    8 O    -1.41529744945E-01  1.53495177309E-01  2.91098856223E-01
  30  15   2    8 O     1.41529744945E-01 -3.46504822691E-01 -2.91098856223E-01

  31  16   1    8 O    -3.58462547365E-01 -3.46443579146E-01  2.08871084982E-01
  32  16   2    8 O     3.58462547365E-01  1.53556420854E-01 -2.08871084982E-01

  33  17   1    8 O    -1.84312240568E-01 -2.88303006094E-01  9.18591991795E-02
  34  17   2    8 O     1.84312240568E-01  2.11696993906E-01 -9.18591991795E-02

  35  18   1    8 O    -4.75704704913E-01 -3.10826848379E-01 -7.95630596733E-02
  36  18   2    8 O     4.75704704913E-01  1.89173151621E-01  7.95630596733E-02

 NUMBER OF SYMMETRY OPERATORS         :    2
 *******************************************************************************
 * GEOMETRY EDITING - INPUT COORDINATES ARE GIVEN IN ANGSTROM         
 *******************************************************************************

 GEOMETRY NOW FULLY CONSISTENT WITH THE GROUP
 INFORMATION **** NEW DEFAULT **** FINALRUN 4 FOR GEOMETRY OPTIMIZATIONS
 INFORMATION **** NEW DEFAULT **** OPTGEOM OPTIMIZES BOTH ATOMIC COORDINATES AND CELL PARAMETERS
 INFORMATION **** NEW DEFAULT **** TOL. ON ATOMIC DISP TO REDEFINE REF. GEOMETRY: 0.8 Angs
 INFORMATION **** NEW DEFAULT **** N POINTS TO REDEFINE REF. GEOMETRY: N OF OPT DEGS OF FREEDOM
 INFORMATION **** NEW DEFAULT **** TOL. ON ENERGY TO REDEFINE REF. GEOMETRY: 10**-3*(5*N. ATOMS)

 EXTERNAL STRESS APPLIED (HARTREE/BOHR^3):
 (1 HARTREE/BOHR^3 = 29421 GIGAPASCAL)
 EXTERNAL STRESS
 ORDER:   11   12    13 
          21   22    23 
          31   32    33 
  0.3398933E-04  0.0000000E+00  0.0000000E+00
  0.0000000E+00  0.3398933E-04  0.0000000E+00
  0.0000000E+00  0.0000000E+00  0.3398933E-04


 IMPORTANT INFORMATION:
 THE COORDINATE SYSTEM ADOPTED IN THE OPTIMIZATION IS NOT IN
 GENERAL HOMOGENEOUS UNITS. FOR THIS REASON THE GRADIENT AND 
 HESSIAN MATRIX IN TERMS OF THIS SYSTEM ARE GIVEN WITHOUT
 UNITS. FOR MORE DETAILS SEE THE MANUAL.

 *******************************************************************************
 COMBINED CELL/ATOM OPTIMIZATION CONTROL

 MAXIMUM GRADIENT COMPONENT   0.00045 MAXIMUM DISPLACEMENT COMPONENT     0.00180
 R.M.S. OF GRADIENT COMPONENT 0.00030 R.M.S. OF DISPLACEMENT COMPONENTS  0.00120
 THRESHOLD ON ENERGY CHANGE 0.100E-06 EXTRAPOLATING POLYNOMIAL ORDER           2
 MAXIMUM ALLOWED NUMBER OF STEPS   -1 SORTING OF ENERGY POINTS:               NO
 ANALYTICAL  GRADIENT                 HESSIAN UPDATING                      BFGS
 STEP SIZE NUMERICAL GRADIENT 0.00100
 INITIAL HESSIAN MATRIX: SCHLEGEL MODEL 2
 *******************************************************************************


 GCALCO - MAX INDICES DIRECT LATTICE VECTOR    11    24    11
 NO.OF VECTORS CREATED 6999 STARS 1824 RMAX   176.69305 BOHR

 GEOMETRY FOR WAVE FUNCTION - DIMENSIONALITY OF THE SYSTEM    3
 (NON PERIODIC DIRECTION: LATTICE PARAMETER FORMALLY SET TO 500)
 *******************************************************************************
 LATTICE PARAMETERS (ANGSTROMS AND DEGREES) - BOHR = 0.5291772083 ANGSTROM
 PRIMITIVE CELL - CENTRING CODE 1/0 VOLUME=   488.036235 - DENSITY  5.087 g/cm^3
         A              B              C           ALPHA      BETA       GAMMA 
    10.91548727     4.68788110    10.98995581    90.000000 119.792155  90.000000
 *******************************************************************************
 ATOMS IN THE ASYMMETRIC UNIT   18 - ATOMS IN THE UNIT CELL:   36
     ATOM                 X/A                 Y/B                 Z/C    
 *******************************************************************************
      1 T  12 MG   -4.903816837676E-01  4.273869170330E-01  2.556262784018E-01
      2 F  12 MG    4.903816837676E-01 -7.261308296700E-02 -2.556262784018E-01
      3 T  12 MG   -9.547639890218E-03 -7.248077675227E-02  2.443400395077E-01
      4 F  12 MG    9.547639890218E-03  4.275192232477E-01 -2.443400395077E-01
      5 T  53 I     1.661076262996E-01  4.807825817706E-01  9.414123125874E-02
      6 F  53 I    -1.661076262996E-01 -1.921741822940E-02 -9.414123125874E-02
      7 T  53 I     3.339596176091E-01 -1.935219919268E-02  4.058802209579E-01
      8 F  53 I    -3.339596176091E-01  4.806478008073E-01 -4.058802209579E-01
      9 T  53 I    -1.659770605746E-01 -1.314020605946E-02  4.304312004607E-01
     10 F  53 I     1.659770605746E-01  4.868597939405E-01 -4.304312004607E-01
     11 T  53 I    -3.339858202950E-01  4.868699550421E-01  6.955903939722E-02
     12 F  53 I     3.339858202950E-01 -1.313004495790E-02 -6.955903939722E-02
     13 T   8 O     3.322670823271E-01 -3.329051462015E-01  1.323521669174E-01
     14 F   8 O    -3.322670823271E-01  1.670948537985E-01 -1.323521669174E-01
     15 T   8 O     5.271718697705E-02 -3.208400560467E-01 -7.085130211821E-02
     16 F   8 O    -5.271718697705E-02  1.791599439533E-01  7.085130211821E-02
     17 T   8 O     1.326129125532E-01 -2.870139036671E-01  2.107663532160E-01
     18 F   8 O    -1.326129125532E-01  2.129860963329E-01 -2.107663532160E-01
     19 T   8 O     3.674169863429E-01  2.129877897235E-01  2.892769773961E-01
     20 F   8 O    -3.674169863429E-01 -2.870122102765E-01 -2.892769773961E-01
     21 T   8 O     1.678079881077E-01  1.669657686805E-01  3.677268030772E-01
     22 F   8 O    -1.678079881077E-01 -3.330342313195E-01 -3.677268030772E-01
     23 T   8 O     4.473865248759E-01  1.789865079484E-01 -4.291198961688E-01
     24 F   8 O    -4.473865248759E-01 -3.210134920516E-01  4.291198961688E-01
     25 T   8 O    -3.156838679305E-01  2.116081018715E-01  4.081241508822E-01
     26 F   8 O     3.156838679305E-01 -2.883918981285E-01 -4.081241508822E-01
     27 T   8 O    -2.426122803150E-02  1.892229221597E-01 -4.204854854803E-01
     28 F   8 O     2.426122803150E-02 -3.107770778403E-01  4.204854854803E-01
     29 T   8 O    -1.415297449447E-01  1.534951773087E-01  2.910988562231E-01
     30 F   8 O     1.415297449447E-01 -3.465048226913E-01 -2.910988562231E-01
     31 T   8 O    -3.584625473646E-01 -3.464435791456E-01  2.088710849815E-01
     32 F   8 O     3.584625473646E-01  1.535564208544E-01 -2.088710849815E-01
     33 T   8 O    -1.843122405684E-01 -2.883030060940E-01  9.185919917954E-02
     34 F   8 O     1.843122405684E-01  2.116969939060E-01 -9.185919917954E-02
     35 T   8 O    -4.757047049135E-01 -3.108268483786E-01 -7.956305967332E-02
     36 F   8 O     4.757047049135E-01  1.891731516214E-01  7.956305967332E-02

 T = ATOM BELONGING TO THE ASYMMETRIC UNIT

 ****    2 SYMMOPS - TRANSLATORS IN FRACTIONAL UNITS
 **** MATRICES AND TRANSLATORS IN THE CRYSTALLOGRAPHIC REFERENCE FRAME
   V INV                    ROTATION MATRICES                   TRANSLATORS
   1   1  1.00  0.00  0.00  0.00  1.00  0.00  0.00  0.00  1.00  0.00  0.00  0.00
   2   2 -1.00  0.00  0.00 -0.00  1.00 -0.00  0.00  0.00 -1.00  0.00  0.50  0.00

 DIRECT LATTICE VECTORS CARTESIAN COMPONENTS (ANGSTROM)
          X                    Y                    Z
   0.109154872700E+02   0.668380827317E-15   0.000000000000E+00
   0.000000000000E+00   0.468788110000E+01   0.000000000000E+00
  -0.546041604341E+01   0.672940710274E-15   0.953745172143E+01


 CARTESIAN COORDINATES - PRIMITIVE CELL
 *******************************************************************************
 *      ATOM          X(ANGSTROM)         Y(ANGSTROM)         Z(ANGSTROM)
 *******************************************************************************
    1    12 MG    4.166906411690E+00  2.003539050746E+00  2.438023288986E+00
    2    12 MG   -4.166906411690E+00 -3.404014992537E-01 -2.438023288986E+00
    3    12 MG   -1.438415413456E+00 -3.397812634503E-01  2.330381330417E+00
    4    12 MG    1.438415413456E+00  2.004159286550E+00 -2.330381330417E+00
    5    53 I     1.299095390811E+00  2.253851578292E+00  8.978674481261E-01
    6    53 I    -1.299095390811E+00 -9.008897170840E-02 -8.978674481261E-01
    7    53 I     1.429057084484E+00 -9.072080883880E-02  3.871063012069E+00
    8    53 I    -1.429057084484E+00  2.253219741161E+00 -3.871063012069E+00
    9    53 I     1.298362119018E+00 -6.159972363625E-02 -5.432234927638E+00
   10    53 I    -1.298362119018E+00  2.282340826364E+00  5.432234927638E+00
   11    53 I    -4.025439264480E+00  2.282388460400E+00  6.634159800400E-01
   12    53 I     4.025439264480E+00 -6.155208960029E-02 -6.634159800400E-01
   13     8 O     2.904159211765E+00 -1.560619742971E+00  1.262302402201E+00
   14     8 O    -2.904159211765E+00  7.833208070293E-01 -1.262302402201E+00
   15     8 O     9.623113701412E-01 -1.504060034864E+00 -6.757408733528E-01
   16     8 O    -9.623113701412E-01  8.398805151357E-01  6.757408733528E-01
   17     8 O     2.966625822997E-01 -1.345487054438E+00  2.010173918299E+00
   18     8 O    -2.966625822997E-01  9.984534955618E-01 -2.010173918299E+00
   19     8 O     2.430962788844E+00  9.984614339756E-01  2.758965206036E+00
   20     8 O    -2.430962788844E+00 -1.345479116024E+00 -2.758965206036E+00
   21     8 O    -1.762353771220E-01  7.827156713443E-01  3.507176631024E+00
   22     8 O     1.762353771220E-01 -1.561224878656E+00 -3.507176631024E+00
   23     8 O    -3.688872187360E+00  8.390674677663E-01 -4.092710292414E+00
   24     8 O     3.688872187360E+00 -1.504873082234E+00  4.092710292414E+00
   25     8 O    -2.139548595080E-01  9.919936213703E-01 -5.644987336041E+00
   26     8 O     2.139548595080E-01 -1.351946928630E+00  5.644987336041E+00
   27     8 O     2.031202565207E+00  8.870545604792E-01 -4.010360017330E+00
   28     8 O    -2.031202565207E+00 -1.456885989521E+00  4.010360017330E+00
   29     8 O    -3.134386994010E+00  7.195671406466E-01  2.776341287391E+00
   30     8 O     3.134386994010E+00 -1.624373409353E+00 -2.776341287391E+00
   31     8 O    -5.053316395968E+00 -1.624086306893E+00  1.992097889014E+00
   32     8 O     5.053316395968E+00  7.198542431070E-01 -1.992097889014E+00
   33     8 O    -2.513447360565E+00 -1.351530213341E+00  8.761026773440E-01
   34     8 O     2.513447360565E+00  9.924103366588E-01 -8.761026773440E-01
   35     8 O    -4.758101243259E+00 -1.457119307887E+00 -7.588288404435E-01
   36     8 O     4.758101243259E+00  8.868212421134E-01  7.588288404435E-01

 *******************************************************************************
 STARTING BASIS SET HANDLING 
 *******************************************************************************

 Loading internal basis set: POB-TZVP-REV2       

 Please cite in your publication:
 D. Vilela Oliveira, M. F. Peintinger, J. Laun, and T. Bredow, J. Comput. Chem., 40 (2019)                                                                                                                                                                       
 J. Laun, and T. Bredow, J. Comput. Chem., 42 (2021)                                                                                                                                                                                                             
 J. Laun, and T. Bredow, J. Comput. Chem., 43 (2022)                                                                                                                                                                                                             

 *******************************************************************************
 *** PSEUDOPOTENTIAL INFORMATION ***
 *******************************************************************************

 ATOMIC NUMBER  53, NUCLEAR CHARGE 25.000,                      PSEUDOPOTENTIAL
   TYPE       EXPONENT      COEFF.    N      EXPONENT      COEFF.    N
  P0 TMS    40.0333760   49.9896490   0    17.3005760  281.0065560   0
             8.8517200   61.4167390   0
  P1 TMS    15.7201410   67.4162390   0    15.2082220  134.8076960   0
             8.2941860   14.5665480   0     7.7539490   28.9684220   0
  P2 TMS    13.8177510   35.5387560   0    13.5878050   53.3397590   0
             6.9476300    9.7164660   0     6.9600990   14.9775000   0
  P3 TMS    18.5229500  -20.1766180   0    18.2510350  -26.0880770   0
             7.5579010   -0.2204340   0     7.5974040   -0.2216460   0

 *******************************************************************************
 LOCAL ATOMIC FUNCTIONS BASIS SET
 *******************************************************************************
   ATOM   X(AU)   Y(AU)   Z(AU)  N. TYPE  EXPONENT  S COEF   P COEF   D/F/G COEF
 *******************************************************************************
   1 MG   7.874   3.786   4.607
                                  1 S  
                                         3.144E+04 6.091E-04 0.000E+00 0.000E+00
                                         4.716E+03 4.707E-03 0.000E+00 0.000E+00
                                         1.073E+03 2.414E-02 0.000E+00 0.000E+00
                                         3.036E+02 9.363E-02 0.000E+00 0.000E+00
                                         9.863E+01 2.665E-01 0.000E+00 0.000E+00
                                         3.494E+01 4.789E-01 0.000E+00 0.000E+00
                                         1.286E+01 3.370E-01 0.000E+00 0.000E+00
                                  2 S  
                                         6.488E+01 1.918E-02 0.000E+00 0.000E+00
                                         1.973E+01 9.091E-02 0.000E+00 0.000E+00
                                         2.895E+00-3.956E-01 0.000E+00 0.000E+00
                                  3 S  
                                         1.196E+00 1.683E+00 0.000E+00 0.000E+00
                                         5.433E-01 5.214E-01 0.000E+00 0.000E+00
                                  4 S  
                                         8.347E-01 1.000E+00 0.000E+00 0.000E+00
                                  5 S  
                                         1.451E-01 1.000E+00 0.000E+00 0.000E+00
                           6-     8 P  
                                         1.799E+02 0.000E+00 5.380E-03 0.000E+00
                                         4.212E+01 0.000E+00 3.932E-02 0.000E+00
                                         1.312E+01 0.000E+00 1.574E-01 0.000E+00
                                         4.626E+00 0.000E+00 3.592E-01 0.000E+00
                                         1.670E+00 0.000E+00 4.553E-01 0.000E+00
                           9-    11 P  
                                         5.663E-01 0.000E+00 1.000E+00 0.000E+00
                          12-    14 P  
                                         1.881E-01 0.000E+00 1.000E+00 0.000E+00
                          15-    19 D  
                                         2.936E-01 0.000E+00 0.000E+00 1.000E+00
   2 MG  -7.874  -0.643  -4.607
   3 MG  -2.718  -0.642   4.404
   4 MG   2.718   3.787  -4.404
   5 I    2.455   4.259   1.697
                                 77 S  
                                         5.900E+03 2.419E-04 0.000E+00 0.000E+00
                                         8.985E+02 1.547E-03 0.000E+00 0.000E+00
                                         2.004E+02 4.284E-03 0.000E+00 0.000E+00
                                         3.142E+01-3.942E-02 0.000E+00 0.000E+00
                                         1.565E+01 9.609E-01 0.000E+00 0.000E+00
                                 78 S  
                                         1.182E+01 7.596E-01 0.000E+00 0.000E+00
                                         6.461E+00 4.250E-01 0.000E+00 0.000E+00
                                 79 S  
                                         2.221E+00 7.013E-01 0.000E+00 0.000E+00
                                         1.042E+00 2.987E-01 0.000E+00 0.000E+00
                                 80 S  
                                         2.321E-01 1.000E+00 0.000E+00 0.000E+00
                          81-    83 P  
                                         1.973E+02 0.000E+00 7.395E-04 0.000E+00
                                         2.006E+01 0.000E+00 6.617E-02 0.000E+00
                                         9.763E+00 0.000E+00-2.855E-01 0.000E+00
                          84-    86 P  
                                         1.298E+01 0.000E+00-4.910E-02 0.000E+00
                                         3.620E+00 0.000E+00 3.891E-01 0.000E+00
                                         2.023E+00 0.000E+00 6.561E-01 0.000E+00
                                         1.037E+00 0.000E+00 3.180E-01 0.000E+00
                          87-    89 P  
                                         3.996E-01 0.000E+00 1.000E+00 0.000E+00
                          90-    92 P  
                                         1.222E-01 0.000E+00 1.000E+00 0.000E+00
                          93-    97 D  
                                         1.191E+02 0.000E+00 0.000E+00 8.260E-04
                                         3.340E+01 0.000E+00 0.000E+00 6.838E-03
                                         1.781E+01 0.000E+00 0.000E+00-1.031E-02
                                         4.899E+00 0.000E+00 0.000E+00 2.267E-01
                                         2.452E+00 0.000E+00 0.000E+00 4.418E-01
                                         1.182E+00 0.000E+00 0.000E+00 3.678E-01
                          98-   102 D  
                                         1.004E+00 0.000E+00 0.000E+00 1.000E+00
                         103-   107 D  
                                         5.278E-01 0.000E+00 0.000E+00 1.000E+00
                         108-   112 D  
                                         2.010E-01 0.000E+00 0.000E+00 1.000E+00
   6 I   -2.455  -0.170  -1.697
   7 I    2.701  -0.171   7.315
   8 I   -2.701   4.258  -7.315
   9 I    2.454  -0.116 -10.265
  10 I   -2.454   4.313  10.265
  11 I   -7.607   4.313   1.254
  12 I    7.607  -0.116  -1.254
  13 O    5.488  -2.949   2.385
                                365 S  
                                         2.703E+04 2.173E-04 0.000E+00 0.000E+00
                                         4.052E+03 1.684E-03 0.000E+00 0.000E+00
                                         9.223E+02 8.740E-03 0.000E+00 0.000E+00
                                         2.612E+02 3.524E-02 0.000E+00 0.000E+00
                                         8.535E+01 1.115E-01 0.000E+00 0.000E+00
                                         3.104E+01 2.559E-01 0.000E+00 0.000E+00
                                366 S  
                                         1.226E+01 3.977E-01 0.000E+00 0.000E+00
                                         4.999E+00 2.463E-01 0.000E+00 0.000E+00
                                367 S  
                                         1.099E+00 1.000E+00 0.000E+00 0.000E+00
                                368 S  
                                         3.566E-01 1.000E+00 0.000E+00 0.000E+00
                         369-   371 P  
                                         6.327E+01 0.000E+00 6.069E-03 0.000E+00
                                         1.463E+01 0.000E+00 4.191E-02 0.000E+00
                                         4.450E+00 0.000E+00 1.615E-01 0.000E+00
                                         1.528E+00 0.000E+00 3.571E-01 0.000E+00
                         372-   374 P  
                                         5.490E-01 0.000E+00 1.000E+00 0.000E+00
                         375-   377 P  
                                         1.859E-01 0.000E+00 1.000E+00 0.000E+00
                         378-   382 D  
                                         4.535E-01 0.000E+00 0.000E+00 1.000E+00
  14 O   -5.488   1.480  -2.385
  15 O    1.819  -2.842  -1.277
  16 O   -1.819   1.587   1.277
  17 O    0.561  -2.543   3.799
  18 O   -0.561   1.887  -3.799
  19 O    4.594   1.887   5.214
  20 O   -4.594  -2.543  -5.214
  21 O   -0.333   1.479   6.628
  22 O    0.333  -2.950  -6.628
  23 O   -6.971   1.586  -7.734
  24 O    6.971  -2.844   7.734
  25 O   -0.404   1.875 -10.667
  26 O    0.404  -2.555  10.667
  27 O    3.838   1.676  -7.578
  28 O   -3.838  -2.753   7.578
  29 O   -5.923   1.360   5.247
  30 O    5.923  -3.070  -5.247
  31 O   -9.549  -3.069   3.765
  32 O    9.549   1.360  -3.765
  33 O   -4.750  -2.554   1.656
  34 O    4.750   1.875  -1.656
  35 O   -8.992  -2.754  -1.434
  36 O    8.992   1.676   1.434

 *******************************************************************************
 FINISHED BASIS SET HANDLING 
 *******************************************************************************

 INFORMATION **** SET_MPP **** PCRYSTAL CALCULATION
 INFORMATION **** READM2 **** NEW DEFAULT: FOCK/KS MATRIX MIXING SET TO 30 %
 INFORMATION **** READM2 **** NEW DEFAULT: FULL DIRECT SCF MODE
 INFORMATION **** READM2 **** NEW DEFAULT: COULOMB BIPOLAR BUFFER SET TO 32 Mb
 INFORMATION **** READM2 **** NEW DEFAULT: EXCHANGE BIPOLAR BUFFER SET TO 32 Mb

 *******************************************************************************
 NEW DEFAULT: DFT INTEGRATION GRID INCREASED TO XLGRID
 NEW DEFAULT: DIIS ACCELERATOR ACTIVE
 USE KEYWORD NODIIS TO TURN IT OFF
 *******************************************************************************

 INFORMATION **** DFTD3_INPUT **** PERFORM LATEST DISPERSION CORRECTION DFT-D3(BJ) WITH AUTOMATIC PARAMETER SETUP
 PLEASE CITE:
 (1) DFT-D3 Reference
  S. Grimme, J. Antony, S. Ehrlich, and H. Krieg, J. Chem. Phys. 132 (2010), 154104
 (2) BJ-Damping Reference
  S. Grimme, S. Ehrlich, and L. Goerigk, J. Comput. Chem. 32 (2011), 1456-1465
 (3) General DFT-D Review
  S. Grimme, A. Hansen, J. G. Brandenburg, and C. Bannwarth,
  Chem. Rev. 116 (2016), 5105-5154

 INFORMATION **** TOLINTEG **** COULOMB AND EXCHANGE SERIES TOLERANCES MODIFIED
 INFORMATION **** TOLDEE **** SCF TOL ON TOTAL ENERGY SET TO           9
 *******************************************************************************
 N. OF ATOMS PER CELL        36  COULOMB OVERLAP TOL         (T1) 10**   -9
 NUMBER OF SHELLS           324  COULOMB PENETRATION TOL     (T2) 10**   -9
 NUMBER OF AO               796  EXCHANGE OVERLAP TOL        (T3) 10**   -9
 N. OF ELECTRONS PER CELL   440  EXCHANGE PSEUDO OVP (F(G))  (T4) 10**   -9
 CORE ELECTRONS PER CELL     88  EXCHANGE PSEUDO OVP (P(G))  (T5) 10**  -27
 N. OF SYMMETRY OPERATORS     2  POLE ORDER IN MONO ZONE                  4
 *******************************************************************************
 TYPE OF CALCULATION :  RESTRICTED CLOSED SHELL
 KOHN-SHAM HAMILTONIAN

 (EXCHANGE)[CORRELATION] FUNCTIONAL:(PERDEW-BURKE-ERNZERHOF)[PERDEW-BURKE-ERNZERHOF]


 HYBRID EXCHANGE - PERCENTAGE OF FOCK EXCHANGE    25.0000
 CORE  PSEUDO POTENTIAL         TOL. ON PSEUDO              (TP) 10**- 6

 CAPPA:IS1  6;IS2  6;IS3  6; K PTS MONK NET  80; SYMMOPS:K SPACE   4;G SPACE   2

 *******************************************************************************
 MAX NUMBER OF SCF CYCLES      50  CONVERGENCE ON DELTAP        10**-19
 WEIGHT OF F(I) IN F(I+1)      30% CONVERGENCE ON ENERGY        10**- 9
 SHRINK. FACT.(MONKH.)    6  6  6  NUMBER OF K POINTS IN THE IBZ     80
 SHRINKING FACTOR(GILAT NET)    6  NUMBER OF K POINTS(GILAT NET)     80
 *******************************************************************************
 *** K POINTS COORDINATES (OBLIQUE COORDINATES IN UNITS OF IS =  6)
   1-R(  0  0  0)   2-C(  1  0  0)   3-C(  2  0  0)   4-R(  3  0  0)
   5-C(  0  1  0)   6-C(  1  1  0)   7-C(  2  1  0)   8-C(  3  1  0)
   9-C(  0  2  0)  10-C(  1  2  0)  11-C(  2  2  0)  12-C(  3  2  0)
  13-R(  0  3  0)  14-C(  1  3  0)  15-C(  2  3  0)  16-R(  3  3  0)
  17-C(  0  0  1)  18-C(  1  0  1)  19-C(  2  0  1)  20-C(  3  0  1)
  21-C(  4  0  1)  22-C(  5  0  1)  23-C(  0  1  1)  24-C(  1  1  1)
  25-C(  2  1  1)  26-C(  3  1  1)  27-C(  4  1  1)  28-C(  5  1  1)
  29-C(  0  2  1)  30-C(  1  2  1)  31-C(  2  2  1)  32-C(  3  2  1)
  33-C(  4  2  1)  34-C(  5  2  1)  35-C(  0  3  1)  36-C(  1  3  1)
  37-C(  2  3  1)  38-C(  3  3  1)  39-C(  4  3  1)  40-C(  5  3  1)
  41-C(  0  0  2)  42-C(  1  0  2)  43-C(  2  0  2)  44-C(  3  0  2)
  45-C(  4  0  2)  46-C(  5  0  2)  47-C(  0  1  2)  48-C(  1  1  2)
  49-C(  2  1  2)  50-C(  3  1  2)  51-C(  4  1  2)  52-C(  5  1  2)
  53-C(  0  2  2)  54-C(  1  2  2)  55-C(  2  2  2)  56-C(  3  2  2)
  57-C(  4  2  2)  58-C(  5  2  2)  59-C(  0  3  2)  60-C(  1  3  2)
  61-C(  2  3  2)  62-C(  3  3  2)  63-C(  4  3  2)  64-C(  5  3  2)
  65-R(  0  0  3)  66-C(  1  0  3)  67-C(  2  0  3)  68-R(  3  0  3)
  69-C(  0  1  3)  70-C(  1  1  3)  71-C(  2  1  3)  72-C(  3  1  3)
  73-C(  0  2  3)  74-C(  1  2  3)  75-C(  2  2  3)  76-C(  3  2  3)
  77-R(  0  3  3)  78-C(  1  3  3)  79-C(  2  3  3)  80-R(  3  3  3)

 DIRECT LATTICE VECTORS COMPON. (A.U.)     RECIP. LATTICE VECTORS COMPON. (A.U.) 
        X            Y            Z              X            Y            Z
   20.6272816    0.0000000    0.0000000      0.3046056   -0.0000000    0.1743939
    0.0000000    8.8588114    0.0000000     -0.0000000    0.7092583   -0.0000000
  -10.3186909    0.0000000   18.0231718      0.0000000    0.0000000    0.3486171

 DISK SPACE FOR EIGENVECTORS (FTN 10)    96309632 REALS

 SYMMETRY ADAPTION OF THE BLOCH FUNCTIONS ENABLED
 TTTTTTTTTTTTTTTTTTTTTTTTTTTTTT gordsh1     TELAPSE        3.88 TCPU        2.37

 MATRIX SIZE: P(G) 4272788, F(G)  404414, P(G) IRR 1078454, F(G) IRR  204285
 MAX G-VECTOR INDEX FOR 1- AND 2-ELECTRON INTEGRALS 159

 TTTTTTTTTTTTTTTTTTTTTTTTTTTTTT INPUT       TELAPSE        3.91 TCPU        2.39

 NEIGHBORS OF THE NON-EQUIVALENT ATOMS

 N = NUMBER OF NEIGHBORS AT DISTANCE R
    ATOM  N     R/ANG      R/AU   NEIGHBORS (ATOM LABELS AND CELL INDICES)
   1 MG   1     2.0314     3.8388   19 O    0 0 0
   1 MG   1     2.0486     3.8714   31 O    1 1 0
   1 MG   1     2.0590     3.8910   13 O    0 1 0
   1 MG   1     2.0718     3.9152   25 O    1 0 1
   1 MG   1     2.0875     3.9448   24 O    0 1 0
   1 MG   1     2.1015     3.9712   36 O    0 0 0

   3 MG   1     2.0309     3.8378   17 O    0 0 0
   3 MG   1     2.0488     3.8716   29 O    0 0 0
   3 MG   1     2.0586     3.8902   21 O    0 0 0
   3 MG   1     2.0723     3.9160   33 O    0 0 0
   3 MG   1     2.0871     3.9441   16 O    0 0 0
   3 MG   1     2.1028     3.9737   28 O    0 0 0

   5 I    1     1.8512     3.4983   17 O    0 1 0
   5 I    1     1.8586     3.5123   15 O    0 1 0
   5 I    1     1.8633     3.5211   13 O    0 1 0
   5 I    1     2.4926     4.7103   34 O    0 0 0
   5 I    1     2.5141     4.7510   19 O    0 0 0
   5 I    1     2.6763     5.0575   16 O    0 0 0

   7 I    1     1.8512     3.4982   19 O    0 0 0
   7 I    1     1.8587     3.5124   23 O    1 0 1
   7 I    1     1.8634     3.5213   21 O    0 0 0
   7 I    1     2.4928     4.7107   26 O    0 0 0
   7 I    1     2.5139     4.7506   17 O    0 0 0
   7 I    1     2.6750     5.0551   24 O    0 0 0

   9 I    1     1.8526     3.5010   29 O    0 0-1
   9 I    1     1.8554     3.5062   25 O    0 0 0
   9 I    1     1.8598     3.5144   27 O    0 0 0
   9 I    1     2.5488     4.8165   28 O    0 0-1
   9 I    1     2.6859     5.0756   22 O    0 0 0
   9 I    1     2.7751     5.2441   31 O    0 0-1

  11 I    1     1.8527     3.5011   31 O    0 1 0
  11 I    1     1.8553     3.5060   33 O    0 1 0
  11 I    1     1.8598     3.5146   35 O    0 1 0
  11 I    1     2.5499     4.8186   36 O   -1 0 0
  11 I    1     2.6857     5.0752   14 O    0 0 0
  11 I    1     2.7750     5.2441   29 O    0 0 0

  13 O    1     1.8633     3.5211    5 I    0-1 0
  13 O    1     2.0590     3.8910    1 MG   0-1 0
  13 O    1     2.6449     4.9982   19 O    0-1 0
  13 O    1     2.6857     5.0752   12 I    0 0 0
  13 O    1     2.7211     5.1422   17 O    0 0 0
  13 O    1     2.7441     5.1856   15 O    0 0 0

  15 O    1     1.8586     3.5123    5 I    0-1 0
  15 O    1     2.0871     3.9441    4 MG   0-1 0
  15 O    1     2.6763     5.0575    6 I    0 0 0
  15 O    1     2.6923     5.0877   34 O    0-1 0
  15 O    1     2.7441     5.1856   13 O    0 0 0
  15 O    1     2.7717     5.2378   17 O    0 0 0

  17 O    1     1.8512     3.4983    5 I    0-1 0
  17 O    1     2.0309     3.8378    3 MG   0 0 0
  17 O    1     2.5139     4.7506    7 I    0 0 0
  17 O    1     2.6446     4.9976   21 O    0 0 0
  17 O    1     2.7211     5.1422   13 O    0 0 0
  17 O    1     2.7717     5.2378   15 O    0 0 0

  19 O    1     1.8512     3.4982    7 I    0 0 0
  19 O    1     2.0314     3.8388    1 MG   0 0 0
  19 O    1     2.5141     4.7510    5 I    0 0 0
  19 O    1     2.6449     4.9982   13 O    0 1 0
  19 O    1     2.7210     5.1419   21 O    0 0 0
  19 O    1     2.7714     5.2372   23 O    1 0 1

  21 O    1     1.8634     3.5213    7 I    0 0 0
  21 O    1     2.0586     3.8902    3 MG   0 0 0
  21 O    1     2.6446     4.9976   17 O    0 0 0
  21 O    1     2.6859     5.0756   10 I    0 0 0
  21 O    1     2.7210     5.1419   19 O    0 0 0
  21 O    1     2.7442     5.1857   23 O    1 0 1

  23 O    1     1.8587     3.5124    7 I   -1 0-1
  23 O    1     2.0875     3.9448    2 MG   0 0 0
  23 O    1     2.6750     5.0551    8 I    0 0 0
  23 O    1     2.6926     5.0883   26 O   -1 0-1
  23 O    1     2.7442     5.1857   21 O   -1 0-1
  23 O    1     2.7714     5.2372   19 O   -1 0-1

  25 O    1     1.8554     3.5062    9 I    0 0 0
  25 O    1     2.0718     3.9152    1 MG  -1 0-1
  25 O    1     2.4928     4.7107    8 I    0 0 0
  25 O    1     2.6926     5.0883   24 O   -1 1-1
  25 O    1     2.7792     5.2519   27 O    0 0 0
  25 O    1     2.7877     5.2681   29 O    0 0-1

  27 O    1     1.8598     3.5144    9 I    0 0 0
  27 O    1     2.1028     3.9737    4 MG   0 0 0
  27 O    1     2.5488     4.8165   10 I    0 0-1
  27 O    1     2.7344     5.1672   30 O    0 1 0
  27 O    1     2.7716     5.2375   29 O    0 0-1
  27 O    1     2.7792     5.2519   25 O    0 0 0

  29 O    1     1.8526     3.5010    9 I    0 0 1
  29 O    1     2.0488     3.8716    3 MG   0 0 0
  29 O    1     2.7344     5.1672   28 O    0 0 0
  29 O    1     2.7716     5.2375   27 O    0 0 1
  29 O    1     2.7750     5.2441   11 I    0 0 0
  29 O    1     2.7877     5.2681   25 O    0 0 1

  31 O    1     1.8527     3.5011   11 I    0-1 0
  31 O    1     2.0486     3.8714    1 MG  -1-1 0
  31 O    1     2.7348     5.1680   36 O   -1-1 0
  31 O    1     2.7718     5.2379   35 O    0 0 0
  31 O    1     2.7751     5.2441    9 I    0 0 1
  31 O    1     2.7876     5.2678   33 O    0 0 0

  33 O    1     1.8553     3.5060   11 I    0-1 0
  33 O    1     2.0723     3.9160    3 MG   0 0 0
  33 O    1     2.4926     4.7103    6 I    0 0 0
  33 O    1     2.6923     5.0877   16 O    0 0 0
  33 O    1     2.7790     5.2515   35 O    0 0 0
  33 O    1     2.7876     5.2678   31 O    0 0 0

  35 O    1     1.8598     3.5146   11 I    0-1 0
  35 O    1     2.1015     3.9712    2 MG   0 0 0
  35 O    1     2.5499     4.8186   12 I   -1 0 0
  35 O    1     2.7348     5.1680   32 O   -1 0 0
  35 O    1     2.7718     5.2379   31 O    0 0 0
  35 O    1     2.7790     5.2515   33 O    0 0 0


 SYMMETRY ALLOWED ELASTIC DISTORTION 1
  0.5773503  0.0000000  0.0000000
  0.0000000  0.5773503  0.0000000
  0.0000000  0.0000000  0.5773503

 SYMMETRY ALLOWED ELASTIC DISTORTION 2
  0.8164966  0.0000000  0.0000000
  0.0000000 -0.4082483  0.0000000
  0.0000000  0.0000000 -0.4082483

 SYMMETRY ALLOWED ELASTIC DISTORTION 3
  0.0000000  0.0000000  0.0000000
  0.0000000  0.7071068  0.0000000
  0.0000000  0.0000000 -0.7071068

 SYMMETRY ALLOWED ELASTIC DISTORTION 4
 -0.0000000  0.0000000  0.7071068
  0.0000000 -0.0000000  0.0000000
  0.7071068  0.0000000  0.0000000

 SYMMETRY ALLOWED INTERNAL DEGREE(S) OF FREEDOM:  53
 TTTTTTTTTTTTTTTTTTTTTTTTTTTTTT SYMM        TELAPSE        3.96 TCPU        2.44
 TTTTTTTTTTTTTTTTTTTTTTTTTTTTTT INT_SCREEN  TELAPSE        3.99 TCPU        2.46

 *******************************************************************************
 *                             OPTIMIZATION STARTS                             *
 *******************************************************************************
 RECLASIFICATION OF INDICES FOR INTEGRAL CALC ACCORDING TO DIFFERENT CRITERIA:
           FIXDELTE                  FIXDELTX              FIXDELTN
          0.10000000               0.80000000                 57
 DEFAULT MAX NUM OF POINTS  114
 *******************************************************************************

 *******************************************************************************
 COORDINATE AND CELL OPTIMIZATION - POINT    1
 WARNING **** EXCBUF **** EXCH. BIPO BUFFER TOO SMALL - TO AVOID I/O SET EXCHSIZE =     7434648

 DFT PARAMETERS

     ATOM       ELECTRONS   NET CHARGE   R(ANGSTROM)
   1  12  MG     12.0000      0.0000     1.60000000
   5  53  I      25.0000      0.0000     1.33000000
  13   8  O       8.0000      0.0000     0.74000000

 SIZE OF GRID=    2836120
 TTTTTTTTTTTTTTTTTTTTTTTTTTTTTT MAKE_GRID2  TELAPSE       22.17 TCPU       20.56
 BECKE WEIGHT FUNCTION
 RADSAFE =     2.00
 TOLERANCES - DENSITY:10**- 6; POTENTIAL:10**- 9; GRID WGT:10**-14

 RADIAL INTEGRATION  - INTERVALS (POINTS,UPPER LIMIT):            1(300,  4.0*R)

 ANGULAR INTEGRATION - INTERVALS (ACCURACY LEVEL [N. POINTS] UPPER LIMIT):
  1(  6[ 146]   0.2)  2( 11[ 302]   0.5)  3( 14[ 590]   0.9)  4( 18[1454]   3.5)
  5( 14[ 590]9999.0)
 TTTTTTTTTTTTTTTTTTTTTTTTTTTTTT INT_CALC    TELAPSE       22.20 TCPU       20.59

 *******************************************************************************
 Mg(IO3)2 P21                                                                    
 CRYSTAL - SCF - TYPE OF CALCULATION :  RESTRICTED CLOSED SHELL
 *******************************************************************************

 CAPPA:IS1  6;IS2  6;IS3  6; K PTS MONK NET  80; SYMMOPS:K SPACE   4;G SPACE   2

 TTTTTTTTTTTTTTTTTTTTTTTTTTTTTT SDIK        TELAPSE       23.20 TCPU       21.58

 AAAAAAAAAAAAAAAAAAAAAAAAAAAAAAAAAAAAAAAAAAAAAAAAAAAAAAAAAAAAAAAAAAAAAAAAAAAAAAA
         ATOMIC WAVEFUNCTION(S)


 NUCLEAR CHARGE 12.0  SYMMETRY SPECIES            S    P
 N. ELECTRONS   12.0  NUMBER OF PRIMITIVE GTOS   14    7
                      NUMBER OF CONTRACTED GTOS   5    3
                      NUMBER OF CLOSED SHELLS     3    1
                      OPEN SHELL OCCUPATION       0    0

  ZNUC  SCFIT    TOTAL HF ENERGY   KINETIC ENERGY   VIRIAL THEOREM             ACCURACY
  12.0     8    -1.994903813E+02  2.003482110E+02 -1.995718306E+00  4.2E-06

 NUCLEAR CHARGE 25.0  SYMMETRY SPECIES            S    P    D
 N. ELECTRONS   25.0  NUMBER OF PRIMITIVE GTOS   10    9    9
                      NUMBER OF CONTRACTED GTOS   4    4    4
                      NUMBER OF CLOSED SHELLS     2    1    1
                      OPEN SHELL OCCUPATION       0    5    0

  ZNUC  SCFIT    TOTAL HF ENERGY   KINETIC ENERGY   VIRIAL THEOREM             ACCURACY
  25.0    10    -2.945672222E+02  1.114753143E+02 -3.642443522E+00  1.4E-06

 NUCLEAR CHARGE  8.0  SYMMETRY SPECIES            S    P
 N. ELECTRONS    8.0  NUMBER OF PRIMITIVE GTOS   10    6
                      NUMBER OF CONTRACTED GTOS   4    3
                      NUMBER OF CLOSED SHELLS     2    0
                      OPEN SHELL OCCUPATION       0    4

  ZNUC  SCFIT    TOTAL HF ENERGY   KINETIC ENERGY   VIRIAL THEOREM             ACCURACY
   8.0    13    -7.480300557E+01  7.484348361E+01 -1.999459164E+00  4.9E-06

 AAAAAAAAAAAAAAAAAAAAAAAAAAAAAAAAAAAAAAAAAAAAAAAAAAAAAAAAAAAAAAAAAAAAAAAAAAAAAAA

 CHARGE NORMALIZATION FACTOR   1.00000000
 TOTAL ATOMIC CHARGES:
  12.0000000  12.0000000  12.0000000  12.0000000  25.0000000  25.0000000
  25.0000000  25.0000000  25.0000000  25.0000000  25.0000000  25.0000000
   8.0000000   8.0000000   8.0000000   8.0000000   8.0000000   8.0000000
   8.0000000   8.0000000   8.0000000   8.0000000   8.0000000   8.0000000
   8.0000000   8.0000000   8.0000000   8.0000000   8.0000000   8.0000000
   8.0000000   8.0000000   8.0000000   8.0000000   8.0000000   8.0000000
 TTTTTTTTTTTTTTTTTTTTTTTTTTTTTT MOQGAD      TELAPSE       23.25 TCPU       21.63
 TTTTTTTTTTTTTTTTTTTTTTTTTTTTTT SHELLXN     TELAPSE       48.93 TCPU       47.17
 TTTTTTTTTTTTTTTTTTTTTTTTTTTTTT MONMO3      TELAPSE       49.25 TCPU       47.49
 NUMERICALLY INTEGRATED DENSITY    439.9999832063
 TTTTTTTTTTTTTTTTTTTTTTTTTTTTTT NUMDFT      TELAPSE       53.12 TCPU       51.35
 CYC   0 ETOT(AU) -4.973739043765E+03 DETOT -4.97E+03 tst  0.00E+00 PX  1.00E+00
 TTTTTTTTTTTTTTTTTTTTTTTTTTTTTT DIIS        TELAPSE       53.19 TCPU       51.41
 TTTTTTTTTTTTTTTTTTTTTTTTTTTTTT FDIK        TELAPSE       62.72 TCPU       60.90
 INSULATING STATE
 TOP OF VALENCE BANDS -    BAND    220; K   68; EIG -2.9111024E-01 AU
 TOP OF VALENCE BANDS -    BAND    220; K    1; EIG -2.9688672E-01 AU
 BOTTOM OF VIRTUAL BANDS - BAND    221; K   43; EIG -1.1344944E-01 AU
 INDIRECT ENERGY BAND GAP:   4.8344 eV
 BOTTOM OF VIRTUAL BANDS - BAND    221; K    1; EIG -1.0475248E-01 AU
 TTTTTTTTTTTTTTTTTTTTTTTTTTTTTT PDIG        TELAPSE       63.23 TCPU       61.41
 CHARGE NORMALIZATION FACTOR   1.00000000
 TOTAL ATOMIC CHARGES:
  10.6581623  10.6581623  10.6580284  10.6580284  22.2433938  22.2433938
  22.2434851  22.2434851  22.2186765  22.2186765  22.2186446  22.2186446
   9.1950698   9.1950698   9.1974512   9.1974512   9.0889264   9.0889264
   9.0891459   9.0891459   9.1951469   9.1951469   9.1974351   9.1974351
   9.0974885   9.0974885   9.1171002   9.1171002   9.1837263   9.1837263
   9.1837044   9.1837044   9.0974750   9.0974750   9.1169396   9.1169396
 TTTTTTTTTTTTTTTTTTTTTTTTTTTTTT MOQGAD      TELAPSE       63.25 TCPU       61.41
 TTTTTTTTTTTTTTTTTTTTTTTTTTTTTT SHELLXN     TELAPSE       90.17 TCPU       88.10
 TTTTTTTTTTTTTTTTTTTTTTTTTTTTTT MONMO3      TELAPSE       90.49 TCPU       88.42
 NUMERICALLY INTEGRATED DENSITY    439.9999771950
 TTTTTTTTTTTTTTTTTTTTTTTTTTTTTT NUMDFT      TELAPSE       94.26 TCPU       92.15
 CYC   1 ETOT(AU) -4.966798885695E+03 DETOT  6.94E+00 tst  0.00E+00 PX  1.00E+00
 TTTTTTTTTTTTTTTTTTTTTTTTTTTTTT DIIS        TELAPSE       94.33 TCPU       92.20
 DIIS TEST: 0.11182E+02 AT SCF   CYCLE   1 - MIX   30 %
 TTTTTTTTTTTTTTTTTTTTTTTTTTTTTT FDIK        TELAPSE       96.36 TCPU       94.22
 INSULATING STATE
 TOP OF VALENCE BANDS -    BAND    220; K   20; EIG -1.4074086E-01 AU
 TOP OF VALENCE BANDS -    BAND    220; K    1; EIG -1.4957393E-01 AU
 BOTTOM OF VIRTUAL BANDS - BAND    221; K   43; EIG -3.0641879E-02 AU
 INDIRECT ENERGY BAND GAP:   2.9959 eV
 BOTTOM OF VIRTUAL BANDS - BAND    221; K    1; EIG -1.9459634E-02 AU
 TTTTTTTTTTTTTTTTTTTTTTTTTTTTTT PDIG        TELAPSE       96.89 TCPU       94.70
 CHARGE NORMALIZATION FACTOR   1.00000000
 TOTAL ATOMIC CHARGES:
  10.7863147  10.7863147  10.7860854  10.7860854  24.1280043  24.1280043
  24.1275323  24.1275323  24.0421312  24.0421312  24.0426484  24.0426484
   8.5468269   8.5468269   8.5158770   8.5158770   8.4914502   8.4914502
   8.4917959   8.4917959   8.5471428   8.5471428   8.5157483   8.5157483
   8.4905471   8.4905471   8.5078377   8.5078377   8.4910544   8.4910544
   8.4909290   8.4909290   8.4906016   8.4906016   8.5074729   8.5074729
 TTTTTTTTTTTTTTTTTTTTTTTTTTTTTT MOQGAD      TELAPSE       96.90 TCPU       94.71
 TTTTTTTTTTTTTTTTTTTTTTTTTTTTTT SHELLXN     TELAPSE      123.83 TCPU      121.59
 TTTTTTTTTTTTTTTTTTTTTTTTTTTTTT MONMO3      TELAPSE      124.15 TCPU      121.90
 NUMERICALLY INTEGRATED DENSITY    439.9999731949
 TTTTTTTTTTTTTTTTTTTTTTTTTTTTTT NUMDFT      TELAPSE      127.87 TCPU      125.62
 CYC   2 ETOT(AU) -4.967025667049E+03 DETOT -2.27E-01 tst  1.84E-02 PX  6.30E-01
 TTTTTTTTTTTTTTTTTTTTTTTTTTTTTT DIIS        TELAPSE      127.94 TCPU      125.69
 DIIS TEST: 0.10104E+02 AT SCF   CYCLE   2 - DIIS ACTIVE - HISTORY:     2 CYCLES
 TTTTTTTTTTTTTTTTTTTTTTTTTTTTTT FDIK        TELAPSE      129.87 TCPU      127.60
 INSULATING STATE
 TOP OF VALENCE BANDS -    BAND    220; K   19; EIG -2.1097492E-01 AU
 TOP OF VALENCE BANDS -    BAND    220; K    1; EIG -2.1510203E-01 AU
 BOTTOM OF VIRTUAL BANDS - BAND    221; K   43; EIG -3.7809148E-02 AU
 INDIRECT ENERGY BAND GAP:   4.7121 eV
 BOTTOM OF VIRTUAL BANDS - BAND    221; K    1; EIG -2.8476204E-02 AU
 TTTTTTTTTTTTTTTTTTTTTTTTTTTTTT PDIG        TELAPSE      130.38 TCPU      128.10
 CHARGE NORMALIZATION FACTOR   1.00000000
 TOTAL ATOMIC CHARGES:
  10.7882463  10.7882463  10.7879509  10.7879509  23.1181465  23.1181465
  23.1180288  23.1180288  23.1368080  23.1368080  23.1369927  23.1369927
   8.8975104   8.8975104   8.9133689   8.9133689   8.7191074   8.7191074
   8.7191747   8.7191747   8.8975148   8.8975148   8.9131981   8.9131981
   8.7424215   8.7424215   8.7793251   8.7793251   8.9054066   8.9054066
   8.9052410   8.9052410   8.7425494   8.7425494   8.7790088   8.7790088
 TTTTTTTTTTTTTTTTTTTTTTTTTTTTTT MOQGAD      TELAPSE      130.39 TCPU      128.11
 TTTTTTTTTTTTTTTTTTTTTTTTTTTTTT SHELLXN     TELAPSE      157.36 TCPU      155.07
 TTTTTTTTTTTTTTTTTTTTTTTTTTTTTT MONMO3      TELAPSE      157.67 TCPU      155.39
 NUMERICALLY INTEGRATED DENSITY    439.9999755508
 TTTTTTTTTTTTTTTTTTTTTTTTTTTTTT NUMDFT      TELAPSE      161.50 TCPU      159.21
 CYC   3 ETOT(AU) -4.968791947435E+03 DETOT -1.77E+00 tst  4.66E-03 PX  1.57E-01
 TTTTTTTTTTTTTTTTTTTTTTTTTTTTTT DIIS        TELAPSE      161.56 TCPU      159.27
 DIIS TEST: 0.11865E+00 AT SCF   CYCLE   3 - DIIS ACTIVE - HISTORY:     3 CYCLES
 TTTTTTTTTTTTTTTTTTTTTTTTTTTTTT FDIK        TELAPSE      163.38 TCPU      161.07
 INSULATING STATE
 TOP OF VALENCE BANDS -    BAND    220; K   68; EIG -2.1336363E-01 AU
 TOP OF VALENCE BANDS -    BAND    220; K    1; EIG -2.1978508E-01 AU
 BOTTOM OF VIRTUAL BANDS - BAND    221; K   43; EIG -3.2935357E-02 AU
 INDIRECT ENERGY BAND GAP:   4.9097 eV
 BOTTOM OF VIRTUAL BANDS - BAND    221; K    1; EIG -2.3301046E-02 AU
 TTTTTTTTTTTTTTTTTTTTTTTTTTTTTT PDIG        TELAPSE      163.97 TCPU      161.66
 CHARGE NORMALIZATION FACTOR   1.00000000
 TOTAL ATOMIC CHARGES:
  10.7659838  10.7659838  10.7658030  10.7658030  23.1609512  23.1609512
  23.1608785  23.1608785  23.1129397  23.1129397  23.1130639  23.1130639
   8.8713150   8.8713150   8.8505693   8.8505693   8.8026568   8.8026568
   8.8028135   8.8028135   8.8712746   8.8712746   8.8505010   8.8505010
   8.8017243   8.8017243   8.8147472   8.8147472   8.8193109   8.8193109
   8.8192477   8.8192477   8.8017318   8.8017318   8.8144878   8.8144878
 TTTTTTTTTTTTTTTTTTTTTTTTTTTTTT MOQGAD      TELAPSE      163.98 TCPU      161.67
 TTTTTTTTTTTTTTTTTTTTTTTTTTTTTT SHELLXN     TELAPSE      190.92 TCPU      188.61
 TTTTTTTTTTTTTTTTTTTTTTTTTTTTTT MONMO3      TELAPSE      191.23 TCPU      188.92
 NUMERICALLY INTEGRATED DENSITY    439.9999769211
 TTTTTTTTTTTTTTTTTTTTTTTTTTTTTT NUMDFT      TELAPSE      195.11 TCPU      192.80
 CYC   4 ETOT(AU) -4.968799548761E+03 DETOT -7.60E-03 tst  1.45E-04 PX  2.32E-02
 TTTTTTTTTTTTTTTTTTTTTTTTTTTTTT DIIS        TELAPSE      195.18 TCPU      192.86
 DIIS TEST: 0.85536E-01 AT SCF   CYCLE   4 - DIIS ACTIVE - HISTORY:     4 CYCLES
 TTTTTTTTTTTTTTTTTTTTTTTTTTTTTT FDIK        TELAPSE      196.94 TCPU      194.62
 INSULATING STATE
 TOP OF VALENCE BANDS -    BAND    220; K   68; EIG -2.1174111E-01 AU
 TOP OF VALENCE BANDS -    BAND    220; K    1; EIG -2.1810247E-01 AU
 BOTTOM OF VIRTUAL BANDS - BAND    221; K   43; EIG -3.1083442E-02 AU
 INDIRECT ENERGY BAND GAP:   4.9159 eV
 BOTTOM OF VIRTUAL BANDS - BAND    221; K    1; EIG -2.1419498E-02 AU
 TTTTTTTTTTTTTTTTTTTTTTTTTTTTTT PDIG        TELAPSE      197.45 TCPU      195.13
 CHARGE NORMALIZATION FACTOR   1.00000000
 TOTAL ATOMIC CHARGES:
  10.7589000  10.7589000  10.7587751  10.7587751  23.1588796  23.1588796
  23.1587628  23.1587628  23.1268818  23.1268818  23.1270605  23.1270605
   8.8817974   8.8817974   8.8817616   8.8817616   8.7601690   8.7601690
   8.7603750   8.7603750   8.8818422   8.8818422   8.8816841   8.8816841
   8.7716722   8.7716722   8.7974272   8.7974272   8.8626341   8.8626341
   8.8625697   8.8625697   8.7716223   8.7716223   8.7971852   8.7971852
 TTTTTTTTTTTTTTTTTTTTTTTTTTTTTT MOQGAD      TELAPSE      197.47 TCPU      195.14
 TTTTTTTTTTTTTTTTTTTTTTTTTTTTTT SHELLXN     TELAPSE      224.41 TCPU      222.06
 TTTTTTTTTTTTTTTTTTTTTTTTTTTTTT MONMO3      TELAPSE      224.72 TCPU      222.38
 NUMERICALLY INTEGRATED DENSITY    439.9999759675
 TTTTTTTTTTTTTTTTTTTTTTTTTTTTTT NUMDFT      TELAPSE      228.53 TCPU      226.17
 CYC   5 ETOT(AU) -4.968813965499E+03 DETOT -1.44E-02 tst  3.48E-05 PX  8.20E-03
 TTTTTTTTTTTTTTTTTTTTTTTTTTTTTT DIIS        TELAPSE      228.60 TCPU      226.24
 DIIS TEST: 0.33394E-02 AT SCF   CYCLE   5 - DIIS ACTIVE - HISTORY:     5 CYCLES
 TTTTTTTTTTTTTTTTTTTTTTTTTTTTTT FDIK        TELAPSE      230.70 TCPU      228.33
 INSULATING STATE
 TOP OF VALENCE BANDS -    BAND    220; K   43; EIG -2.1086167E-01 AU
 TOP OF VALENCE BANDS -    BAND    220; K    1; EIG -2.1686245E-01 AU
 BOTTOM OF VIRTUAL BANDS - BAND    221; K   43; EIG -3.0354715E-02 AU
 DIRECT ENERGY BAND GAP:   4.9118 eV
 BOTTOM OF VIRTUAL BANDS - BAND    221; K    1; EIG -2.0923944E-02 AU
 TTTTTTTTTTTTTTTTTTTTTTTTTTTTTT PDIG        TELAPSE      231.29 TCPU      228.91
 CHARGE NORMALIZATION FACTOR   1.00000000
 TOTAL ATOMIC CHARGES:
  10.7621517  10.7621517  10.7620262  10.7620262  23.1473200  23.1473200
  23.1473047  23.1473047  23.1305310  23.1305310  23.1307546  23.1307546
   8.8850160   8.8850160   8.8773266   8.8773266   8.7650771   8.7650771
   8.7651663   8.7651663   8.8850781   8.8850781   8.8771997   8.8771997
   8.7740700   8.7740700   8.7997987   8.7997987   8.8588579   8.8588579
   8.8587279   8.8587279   8.7741196   8.7741196   8.7994737   8.7994737
 TTTTTTTTTTTTTTTTTTTTTTTTTTTTTT MOQGAD      TELAPSE      231.30 TCPU      228.92
 TTTTTTTTTTTTTTTTTTTTTTTTTTTTTT SHELLXN     TELAPSE      258.24 TCPU      255.84
 TTTTTTTTTTTTTTTTTTTTTTTTTTTTTT MONMO3      TELAPSE      258.56 TCPU      256.16
 NUMERICALLY INTEGRATED DENSITY    439.9999760871
 TTTTTTTTTTTTTTTTTTTTTTTTTTTTTT NUMDFT      TELAPSE      262.34 TCPU      259.94
 CYC   6 ETOT(AU) -4.968814292827E+03 DETOT -3.27E-04 tst  9.72E-07 PX  3.45E-03
 TTTTTTTTTTTTTTTTTTTTTTTTTTTTTT DIIS        TELAPSE      262.42 TCPU      260.00
 DIIS TEST: 0.88361E-03 AT SCF   CYCLE   6 - DIIS ACTIVE - HISTORY:     6 CYCLES
 TTTTTTTTTTTTTTTTTTTTTTTTTTTTTT FDIK        TELAPSE      264.05 TCPU      261.63
 INSULATING STATE
 TOP OF VALENCE BANDS -    BAND    220; K   68; EIG -2.1147404E-01 AU
 TOP OF VALENCE BANDS -    BAND    220; K    1; EIG -2.1801652E-01 AU
 BOTTOM OF VIRTUAL BANDS - BAND    221; K   43; EIG -3.0196359E-02 AU
 INDIRECT ENERGY BAND GAP:   4.9328 eV
 BOTTOM OF VIRTUAL BANDS - BAND    221; K    1; EIG -2.0591512E-02 AU
 TTTTTTTTTTTTTTTTTTTTTTTTTTTTTT PDIG        TELAPSE      264.56 TCPU      262.14
 CHARGE NORMALIZATION FACTOR   1.00000000
 TOTAL ATOMIC CHARGES:
  10.7618180  10.7618180  10.7616886  10.7616886  23.1548604  23.1548604
  23.1548383  23.1548383  23.1230463  23.1230463  23.1232566  23.1232566
   8.8785733   8.8785733   8.8830682   8.8830682   8.7636108   8.7636108
   8.7637372   8.7637372   8.8785939   8.8785939   8.8829738   8.8829738
   8.7760038   8.7760038   8.7981310   8.7981310   8.8610237   8.8610237
   8.8609138   8.8609138   8.7760138   8.7760138   8.7978483   8.7978483
 TTTTTTTTTTTTTTTTTTTTTTTTTTTTTT MOQGAD      TELAPSE      264.57 TCPU      262.15
 TTTTTTTTTTTTTTTTTTTTTTTTTTTTTT SHELLXN     TELAPSE      291.53 TCPU      289.10
 TTTTTTTTTTTTTTTTTTTTTTTTTTTTTT MONMO3      TELAPSE      291.85 TCPU      289.41
 NUMERICALLY INTEGRATED DENSITY    439.9999760287
 TTTTTTTTTTTTTTTTTTTTTTTTTTTTTT NUMDFT      TELAPSE      295.60 TCPU      293.16
 CYC   7 ETOT(AU) -4.968814285191E+03 DETOT  7.64E-06 tst  1.29E-06 PX  2.65E-03
 TTTTTTTTTTTTTTTTTTTTTTTTTTTTTT DIIS        TELAPSE      295.68 TCPU      293.23
 DIIS TEST: 0.89428E-03 AT SCF   CYCLE   7 - DIIS ACTIVE - HISTORY:     7 CYCLES
 TTTTTTTTTTTTTTTTTTTTTTTTTTTTTT FDIK        TELAPSE      297.41 TCPU      294.96
 INSULATING STATE
 TOP OF VALENCE BANDS -    BAND    220; K   43; EIG -2.1135439E-01 AU
 TOP OF VALENCE BANDS -    BAND    220; K    1; EIG -2.1749036E-01 AU
 BOTTOM OF VIRTUAL BANDS - BAND    221; K   43; EIG -3.0257443E-02 AU
 DIRECT ENERGY BAND GAP:   4.9279 eV
 BOTTOM OF VIRTUAL BANDS - BAND    221; K    1; EIG -2.0684546E-02 AU
 TTTTTTTTTTTTTTTTTTTTTTTTTTTTTT PDIG        TELAPSE      297.92 TCPU      295.46
 CHARGE NORMALIZATION FACTOR   1.00000000
 TOTAL ATOMIC CHARGES:
  10.7615517  10.7615517  10.7614150  10.7614150  23.1520142  23.1520142
  23.1519727  23.1519727  23.1260668  23.1260668  23.1262586  23.1262586
   8.8847725   8.8847725   8.8782837   8.8782837   8.7640417   8.7640417
   8.7642074   8.7642074   8.8847653   8.8847653   8.8782226   8.8782226
   8.7731130   8.7731130   8.8001091   8.8001091   8.8601651   8.8601651
   8.8600863   8.8600863   8.7730890   8.7730890   8.7998652   8.7998652
 TTTTTTTTTTTTTTTTTTTTTTTTTTTTTT MOQGAD      TELAPSE      297.93 TCPU      295.47
 TTTTTTTTTTTTTTTTTTTTTTTTTTTTTT SHELLXN     TELAPSE      324.89 TCPU      322.39
 TTTTTTTTTTTTTTTTTTTTTTTTTTTTTT MONMO3      TELAPSE      325.21 TCPU      322.71
 NUMERICALLY INTEGRATED DENSITY    439.9999760472
 TTTTTTTTTTTTTTTTTTTTTTTTTTTTTT NUMDFT      TELAPSE      328.93 TCPU      326.41
 CYC   8 ETOT(AU) -4.968814395580E+03 DETOT -1.10E-04 tst  6.43E-07 PX  1.19E-03
 TTTTTTTTTTTTTTTTTTTTTTTTTTTTTT DIIS        TELAPSE      329.07 TCPU      326.46
 DIIS TEST: 0.24064E-03 AT SCF   CYCLE   8 - DIIS ACTIVE - HISTORY:     8 CYCLES
 TTTTTTTTTTTTTTTTTTTTTTTTTTTTTT FDIK        TELAPSE      330.77 TCPU      328.15
 INSULATING STATE
 TOP OF VALENCE BANDS -    BAND    220; K   43; EIG -2.1127615E-01 AU
 TOP OF VALENCE BANDS -    BAND    220; K    1; EIG -2.1746718E-01 AU
 BOTTOM OF VIRTUAL BANDS - BAND    221; K   43; EIG -3.0252138E-02 AU
 DIRECT ENERGY BAND GAP:   4.9259 eV
 BOTTOM OF VIRTUAL BANDS - BAND    221; K    1; EIG -2.0713858E-02 AU
 TTTTTTTTTTTTTTTTTTTTTTTTTTTTTT PDIG        TELAPSE      331.28 TCPU      328.67
 CHARGE NORMALIZATION FACTOR   1.00000000
 TOTAL ATOMIC CHARGES:
  10.7616415  10.7616415  10.7615112  10.7615112  23.1507694  23.1507694
  23.1507315  23.1507315  23.1270271  23.1270271  23.1272177  23.1272177
   8.8819873   8.8819873   8.8803616   8.8803616   8.7641822   8.7641822
   8.7643066   8.7643066   8.8820387   8.8820387   8.8802476   8.8802476
   8.7753614   8.7753614   8.7986891   8.7986891   8.8601166   8.8601166
   8.8600140   8.8600140   8.7753974   8.7753974   8.7983993   8.7983993
 TTTTTTTTTTTTTTTTTTTTTTTTTTTTTT MOQGAD      TELAPSE      331.29 TCPU      328.68
 TTTTTTTTTTTTTTTTTTTTTTTTTTTTTT SHELLXN     TELAPSE      358.24 TCPU      355.39
 TTTTTTTTTTTTTTTTTTTTTTTTTTTTTT MONMO3      TELAPSE      358.56 TCPU      355.70
 NUMERICALLY INTEGRATED DENSITY    439.9999760467
 TTTTTTTTTTTTTTTTTTTTTTTTTTTTTT NUMDFT      TELAPSE      362.38 TCPU      359.50
 CYC   9 ETOT(AU) -4.968814411946E+03 DETOT -1.64E-05 tst  9.73E-08 PX  1.26E-03
 TTTTTTTTTTTTTTTTTTTTTTTTTTTTTT DIIS        TELAPSE      362.47 TCPU      359.58
 DIIS TEST: 0.66663E-04 AT SCF   CYCLE   9 - DIIS ACTIVE - HISTORY:     9 CYCLES
 TTTTTTTTTTTTTTTTTTTTTTTTTTTTTT FDIK        TELAPSE      364.18 TCPU      361.29
 INSULATING STATE
 TOP OF VALENCE BANDS -    BAND    220; K   43; EIG -2.1132659E-01 AU
 TOP OF VALENCE BANDS -    BAND    220; K    1; EIG -2.1748911E-01 AU
 BOTTOM OF VIRTUAL BANDS - BAND    221; K   43; EIG -3.0202355E-02 AU
 DIRECT ENERGY BAND GAP:   4.9286 eV
 BOTTOM OF VIRTUAL BANDS - BAND    221; K    1; EIG -2.0647247E-02 AU
 TTTTTTTTTTTTTTTTTTTTTTTTTTTTTT PDIG        TELAPSE      364.70 TCPU      361.80
 CHARGE NORMALIZATION FACTOR   1.00000000
 TOTAL ATOMIC CHARGES:
  10.7617035  10.7617035  10.7615701  10.7615701  23.1515864  23.1515864
  23.1515533  23.1515533  23.1261331  23.1261331  23.1263268  23.1263268
   8.8829711   8.8829711   8.8796222   8.8796222   8.7643780   8.7643780
   8.7645128   8.7645128   8.8829910   8.8829910   8.8795367   8.8795367
   8.7736561   8.7736561   8.7998678   8.7998678   8.8602121   8.8602121
   8.8601162   8.8601162   8.7736686   8.7736686   8.7995941   8.7995941
 TTTTTTTTTTTTTTTTTTTTTTTTTTTTTT MOQGAD      TELAPSE      364.71 TCPU      361.81
 TTTTTTTTTTTTTTTTTTTTTTTTTTTTTT SHELLXN     TELAPSE      391.67 TCPU      388.45
 TTTTTTTTTTTTTTTTTTTTTTTTTTTTTT MONMO3      TELAPSE      391.99 TCPU      388.76
 NUMERICALLY INTEGRATED DENSITY    439.9999760484
 TTTTTTTTTTTTTTTTTTTTTTTTTTTTTT NUMDFT      TELAPSE      395.65 TCPU      392.42
 CYC  10 ETOT(AU) -4.968814417644E+03 DETOT -5.70E-06 tst  2.82E-08 PX  6.66E-04
 TTTTTTTTTTTTTTTTTTTTTTTTTTTTTT DIIS        TELAPSE      395.72 TCPU      392.48
 DIIS TEST: 0.32475E-04 AT SCF   CYCLE  10 - DIIS ACTIVE - HISTORY:    10 CYCLES
 TTTTTTTTTTTTTTTTTTTTTTTTTTTTTT FDIK        TELAPSE      397.44 TCPU      394.20
 INSULATING STATE
 TOP OF VALENCE BANDS -    BAND    220; K   43; EIG -2.1131538E-01 AU
 TOP OF VALENCE BANDS -    BAND    220; K    1; EIG -2.1750821E-01 AU
 BOTTOM OF VIRTUAL BANDS - BAND    221; K   43; EIG -3.0221142E-02 AU
 DIRECT ENERGY BAND GAP:   4.9278 eV
 BOTTOM OF VIRTUAL BANDS - BAND    221; K    1; EIG -2.0658334E-02 AU
 TTTTTTTTTTTTTTTTTTTTTTTTTTTTTT PDIG        TELAPSE      397.95 TCPU      394.71
 CHARGE NORMALIZATION FACTOR   1.00000000
 TOTAL ATOMIC CHARGES:
  10.7616414  10.7616414  10.7615080  10.7615080  23.1515538  23.1515538
  23.1515172  23.1515172  23.1262630  23.1262630  23.1264529  23.1264529
   8.8831656   8.8831656   8.8795566   8.8795566   8.7639259   8.7639259
   8.7640741   8.7640741   8.8831781   8.8831781   8.8794785   8.8794785
   8.7748406   8.7748406   8.7989718   8.7989718   8.8602036   8.8602036
   8.8601174   8.8601174   8.7748410   8.7748410   8.7987105   8.7987105
 TTTTTTTTTTTTTTTTTTTTTTTTTTTTTT MOQGAD      TELAPSE      397.96 TCPU      394.72
 TTTTTTTTTTTTTTTTTTTTTTTTTTTTTT SHELLXN     TELAPSE      424.99 TCPU      421.74
 TTTTTTTTTTTTTTTTTTTTTTTTTTTTTT MONMO3      TELAPSE      425.31 TCPU      422.05
 NUMERICALLY INTEGRATED DENSITY    439.9999760462
 TTTTTTTTTTTTTTTTTTTTTTTTTTTTTT NUMDFT      TELAPSE      429.10 TCPU      425.85
 CYC  11 ETOT(AU) -4.968814419416E+03 DETOT -1.77E-06 tst  1.26E-08 PX  2.21E-04
 TTTTTTTTTTTTTTTTTTTTTTTTTTTTTT DIIS        TELAPSE      429.18 TCPU      425.91
 DIIS TEST: 0.12604E-04 AT SCF   CYCLE  11 - DIIS ACTIVE - HISTORY:    11 CYCLES
 TTTTTTTTTTTTTTTTTTTTTTTTTTTTTT FDIK        TELAPSE      430.90 TCPU      427.63
 INSULATING STATE
 TOP OF VALENCE BANDS -    BAND    220; K   43; EIG -2.1130926E-01 AU
 TOP OF VALENCE BANDS -    BAND    220; K    1; EIG -2.1747335E-01 AU
 BOTTOM OF VIRTUAL BANDS - BAND    221; K   43; EIG -3.0227389E-02 AU
 DIRECT ENERGY BAND GAP:   4.9275 eV
 BOTTOM OF VIRTUAL BANDS - BAND    221; K    1; EIG -2.0681840E-02 AU
 TTTTTTTTTTTTTTTTTTTTTTTTTTTTTT PDIG        TELAPSE      431.41 TCPU      428.14
 CHARGE NORMALIZATION FACTOR   1.00000000
 TOTAL ATOMIC CHARGES:
  10.7616342  10.7616342  10.7615043  10.7615043  23.1512592  23.1512592
  23.1512193  23.1512193  23.1265651  23.1265651  23.1267539  23.1267539
   8.8825535   8.8825535   8.8799117   8.8799117   8.7643497   8.7643497
   8.7644793   8.7644793   8.8826039   8.8826039   8.8797988   8.8797988
   8.7740747   8.7740747   8.7995962   8.7995962   8.8601888   8.8601888
   8.8600891   8.8600891   8.7741104   8.7741104   8.7993079   8.7993079
 TTTTTTTTTTTTTTTTTTTTTTTTTTTTTT MOQGAD      TELAPSE      431.43 TCPU      428.15
 TTTTTTTTTTTTTTTTTTTTTTTTTTTTTT SHELLXN     TELAPSE      458.61 TCPU      455.31
 TTTTTTTTTTTTTTTTTTTTTTTTTTTTTT MONMO3      TELAPSE      458.92 TCPU      455.63
 NUMERICALLY INTEGRATED DENSITY    439.9999760458
 TTTTTTTTTTTTTTTTTTTTTTTTTTTTTT NUMDFT      TELAPSE      462.77 TCPU      459.47
 CYC  12 ETOT(AU) -4.968814420129E+03 DETOT -7.13E-07 tst  5.87E-09 PX  1.92E-04
 TTTTTTTTTTTTTTTTTTTTTTTTTTTTTT DIIS        TELAPSE      462.84 TCPU      459.54
 DIIS TEST: 0.73691E-05 AT SCF   CYCLE  12 - DIIS ACTIVE - HISTORY:    12 CYCLES
 TTTTTTTTTTTTTTTTTTTTTTTTTTTTTT FDIK        TELAPSE      464.72 TCPU      461.41
 INSULATING STATE
 TOP OF VALENCE BANDS -    BAND    220; K   43; EIG -2.1131193E-01 AU
 TOP OF VALENCE BANDS -    BAND    220; K    1; EIG -2.1749253E-01 AU
 BOTTOM OF VIRTUAL BANDS - BAND    221; K   43; EIG -3.0214790E-02 AU
 DIRECT ENERGY BAND GAP:   4.9279 eV
 BOTTOM OF VIRTUAL BANDS - BAND    221; K    1; EIG -2.0658101E-02 AU
 TTTTTTTTTTTTTTTTTTTTTTTTTTTTTT PDIG        TELAPSE      465.23 TCPU      461.92
 CHARGE NORMALIZATION FACTOR   1.00000000
 TOTAL ATOMIC CHARGES:
  10.7616640  10.7616640  10.7615304  10.7615304  23.1513984  23.1513984
  23.1513697  23.1513697  23.1263702  23.1263702  23.1265638  23.1265638
   8.8829507   8.8829507   8.8797116   8.8797116   8.7641438   8.7641438
   8.7642863   8.7642863   8.8829580   8.8829580   8.8796356   8.8796356
   8.7744605   8.7744605   8.7992320   8.7992320   8.8601922   8.8601922
   8.8601029   8.8601029   8.7744633   8.7744633   8.7989668   8.7989668
 TTTTTTTTTTTTTTTTTTTTTTTTTTTTTT MOQGAD      TELAPSE      465.24 TCPU      461.93
 TTTTTTTTTTTTTTTTTTTTTTTTTTTTTT SHELLXN     TELAPSE      492.29 TCPU      488.97
 TTTTTTTTTTTTTTTTTTTTTTTTTTTTTT MONMO3      TELAPSE      492.60 TCPU      489.28
 NUMERICALLY INTEGRATED DENSITY    439.9999760475
 TTTTTTTTTTTTTTTTTTTTTTTTTTTTTT NUMDFT      TELAPSE      496.35 TCPU      493.03
 CYC  13 ETOT(AU) -4.968814420737E+03 DETOT -6.08E-07 tst  2.33E-09 PX  1.52E-04
 TTTTTTTTTTTTTTTTTTTTTTTTTTTTTT DIIS        TELAPSE      496.43 TCPU      493.10
 DIIS TEST: 0.11555E-05 AT SCF   CYCLE  13 - DIIS ACTIVE - HISTORY:    13 CYCLES
 TTTTTTTTTTTTTTTTTTTTTTTTTTTTTT FDIK        TELAPSE      498.44 TCPU      495.10
 INSULATING STATE
 TOP OF VALENCE BANDS -    BAND    220; K   43; EIG -2.1130977E-01 AU
 TOP OF VALENCE BANDS -    BAND    220; K    1; EIG -2.1748638E-01 AU
 BOTTOM OF VIRTUAL BANDS - BAND    221; K   43; EIG -3.0221649E-02 AU
 DIRECT ENERGY BAND GAP:   4.9277 eV
 BOTTOM OF VIRTUAL BANDS - BAND    221; K    1; EIG -2.0668718E-02 AU
 TTTTTTTTTTTTTTTTTTTTTTTTTTTTTT PDIG        TELAPSE      499.16 TCPU      495.82
 CHARGE NORMALIZATION FACTOR   1.00000000
 TOTAL ATOMIC CHARGES:
  10.7616399  10.7616399  10.7615128  10.7615128  23.1514467  23.1514467
  23.1514071  23.1514071  23.1263541  23.1263541  23.1265446  23.1265446
   8.8828109   8.8828109   8.8797463   8.8797463   8.7641464   8.7641464
   8.7642692   8.7642692   8.8828785   8.8828785   8.8796185   8.8796185
   8.7743828   8.7743828   8.7993897   8.7993897   8.8602169   8.8602169
   8.8601126   8.8601126   8.7744333   8.7744333   8.7990895   8.7990895
 TTTTTTTTTTTTTTTTTTTTTTTTTTTTTT MOQGAD      TELAPSE      499.17 TCPU      495.83
 TTTTTTTTTTTTTTTTTTTTTTTTTTTTTT SHELLXN     TELAPSE      526.21 TCPU      522.85
 TTTTTTTTTTTTTTTTTTTTTTTTTTTTTT MONMO3      TELAPSE      526.52 TCPU      523.16
 NUMERICALLY INTEGRATED DENSITY    439.9999760451
 TTTTTTTTTTTTTTTTTTTTTTTTTTTTTT NUMDFT      TELAPSE      530.31 TCPU      526.93
 CYC  14 ETOT(AU) -4.968814420908E+03 DETOT -1.72E-07 tst  1.83E-10 PX  5.42E-05
 TTTTTTTTTTTTTTTTTTTTTTTTTTTTTT DIIS        TELAPSE      530.42 TCPU      527.03
 DIIS TEST: 0.19379E-06 AT SCF   CYCLE  14 - DIIS ACTIVE - HISTORY:    14 CYCLES
 TTTTTTTTTTTTTTTTTTTTTTTTTTTTTT FDIK        TELAPSE      532.14 TCPU      528.76
 INSULATING STATE
 TOP OF VALENCE BANDS -    BAND    220; K   43; EIG -2.1131431E-01 AU
 TOP OF VALENCE BANDS -    BAND    220; K    1; EIG -2.1749164E-01 AU
 BOTTOM OF VIRTUAL BANDS - BAND    221; K   43; EIG -3.0218261E-02 AU
 DIRECT ENERGY BAND GAP:   4.9279 eV
 BOTTOM OF VIRTUAL BANDS - BAND    221; K    1; EIG -2.0662983E-02 AU
 TTTTTTTTTTTTTTTTTTTTTTTTTTTTTT PDIG        TELAPSE      532.66 TCPU      529.27
 CHARGE NORMALIZATION FACTOR   1.00000000
 TOTAL ATOMIC CHARGES:
  10.7616555  10.7616555  10.7615133  10.7615133  23.1513092  23.1513092
  23.1512948  23.1512948  23.1264733  23.1264733  23.1266683  23.1266683
   8.8829303   8.8829303   8.8797301   8.8797301   8.7642074   8.7642074
   8.7643831   8.7643831   8.8828530   8.8828530   8.8797226   8.8797226
   8.7744108   8.7744108   8.7992210   8.7992210   8.8601692   8.8601692
   8.8601063   8.8601063   8.7743412   8.7743412   8.7990106   8.7990106
 TTTTTTTTTTTTTTTTTTTTTTTTTTTTTT MOQGAD      TELAPSE      532.67 TCPU      529.28
 TTTTTTTTTTTTTTTTTTTTTTTTTTTTTT SHELLXN     TELAPSE      559.69 TCPU      556.28
 TTTTTTTTTTTTTTTTTTTTTTTTTTTTTT MONMO3      TELAPSE      560.01 TCPU      556.59
 NUMERICALLY INTEGRATED DENSITY    439.9999760485
 TTTTTTTTTTTTTTTTTTTTTTTTTTTTTT NUMDFT      TELAPSE      563.84 TCPU      560.43
 CYC  15 ETOT(AU) -4.968814420788E+03 DETOT  1.20E-07 tst  2.46E-10 PX  3.20E-05
 TTTTTTTTTTTTTTTTTTTTTTTTTTTTTT DIIS        TELAPSE      563.93 TCPU      560.50
 DIIS TEST: 0.35627E-06 AT SCF   CYCLE  15 - DIIS ACTIVE - HISTORY:    15 CYCLES
 TTTTTTTTTTTTTTTTTTTTTTTTTTTTTT FDIK        TELAPSE      565.92 TCPU      562.50
 INSULATING STATE
 TOP OF VALENCE BANDS -    BAND    220; K   43; EIG -2.1131135E-01 AU
 TOP OF VALENCE BANDS -    BAND    220; K    1; EIG -2.1748878E-01 AU
 BOTTOM OF VIRTUAL BANDS - BAND    221; K   43; EIG -3.0218654E-02 AU
 DIRECT ENERGY BAND GAP:   4.9278 eV
 BOTTOM OF VIRTUAL BANDS - BAND    221; K    1; EIG -2.0664443E-02 AU
 TTTTTTTTTTTTTTTTTTTTTTTTTTTTTT PDIG        TELAPSE      566.44 TCPU      562.93
 CHARGE NORMALIZATION FACTOR   1.00000000
 TOTAL ATOMIC CHARGES:
  10.7616478  10.7616478  10.7615218  10.7615218  23.1513879  23.1513879
  23.1513498  23.1513498  23.1264018  23.1264018  23.1265945  23.1265945
   8.8828408   8.8828408   8.8797707   8.8797707   8.7641815   8.7641815
   8.7642964   8.7642964   8.8829141   8.8829141   8.8796401   8.8796401
   8.7743746   8.7743746   8.7993308   8.7993308   8.8602003   8.8602003
   8.8600905   8.8600905   8.7744355   8.7744355   8.7990212   8.7990212
 TTTTTTTTTTTTTTTTTTTTTTTTTTTTTT MOQGAD      TELAPSE      566.45 TCPU      562.94
 TTTTTTTTTTTTTTTTTTTTTTTTTTTTTT SHELLXN     TELAPSE      593.42 TCPU      589.69
 TTTTTTTTTTTTTTTTTTTTTTTTTTTTTT MONMO3      TELAPSE      593.74 TCPU      590.01
 NUMERICALLY INTEGRATED DENSITY    439.9999760468
 TTTTTTTTTTTTTTTTTTTTTTTTTTTTTT NUMDFT      TELAPSE      597.39 TCPU      593.56
 CYC  16 ETOT(AU) -4.968814420866E+03 DETOT -7.76E-08 tst  2.44E-10 PX  2.41E-05
 TTTTTTTTTTTTTTTTTTTTTTTTTTTTTT DIIS        TELAPSE      597.51 TCPU      593.68
 DIIS TEST: 0.60650E-07 AT SCF   CYCLE  16 - DIIS ACTIVE - HISTORY:    15 CYCLES
 TTTTTTTTTTTTTTTTTTTTTTTTTTTTTT FDIK        TELAPSE      599.45 TCPU      595.62
 INSULATING STATE
 TOP OF VALENCE BANDS -    BAND    220; K   43; EIG -2.1131045E-01 AU
 TOP OF VALENCE BANDS -    BAND    220; K    1; EIG -2.1748780E-01 AU
 BOTTOM OF VIRTUAL BANDS - BAND    221; K   43; EIG -3.0219517E-02 AU
 DIRECT ENERGY BAND GAP:   4.9277 eV
 BOTTOM OF VIRTUAL BANDS - BAND    221; K    1; EIG -2.0665665E-02 AU
 TTTTTTTTTTTTTTTTTTTTTTTTTTTTTT PDIG        TELAPSE      599.96 TCPU      596.13
 CHARGE NORMALIZATION FACTOR   1.00000000
 TOTAL ATOMIC CHARGES:
  10.7616504  10.7616504  10.7615148  10.7615148  23.1514099  23.1514099
  23.1513850  23.1513850  23.1263748  23.1263748  23.1265661  23.1265661
   8.8828774   8.8828774   8.8797161   8.8797161   8.7641454   8.7641454
   8.7643073   8.7643073   8.8828515   8.8828515   8.8796643   8.8796643
   8.7744278   8.7744278   8.7993155   8.7993155   8.8601967   8.8601967
   8.8601229   8.8601229   8.7743953   8.7743953   8.7990788   8.7990788
 TTTTTTTTTTTTTTTTTTTTTTTTTTTTTT MOQGAD      TELAPSE      599.98 TCPU      596.14
 TTTTTTTTTTTTTTTTTTTTTTTTTTTTTT SHELLXN     TELAPSE      626.95 TCPU      622.85
 TTTTTTTTTTTTTTTTTTTTTTTTTTTTTT MONMO3      TELAPSE      627.27 TCPU      623.16
 NUMERICALLY INTEGRATED DENSITY    439.9999760460
 TTTTTTTTTTTTTTTTTTTTTTTTTTTTTT NUMDFT      TELAPSE      631.07 TCPU      626.95
 CYC  17 ETOT(AU) -4.968814420883E+03 DETOT -1.67E-08 tst  8.69E-11 PX  1.71E-05
 TTTTTTTTTTTTTTTTTTTTTTTTTTTTTT DIIS        TELAPSE      631.24 TCPU      627.11
 DIIS TEST: 0.63250E-07 AT SCF   CYCLE  17 - DIIS ACTIVE - HISTORY:    16 CYCLES
 TTTTTTTTTTTTTTTTTTTTTTTTTTTTTT FDIK        TELAPSE      633.20 TCPU      628.97
 INSULATING STATE
 TOP OF VALENCE BANDS -    BAND    220; K   43; EIG -2.1131170E-01 AU
 TOP OF VALENCE BANDS -    BAND    220; K    1; EIG -2.1748902E-01 AU
 BOTTOM OF VIRTUAL BANDS - BAND    221; K   43; EIG -3.0219614E-02 AU
 DIRECT ENERGY BAND GAP:   4.9278 eV
 BOTTOM OF VIRTUAL BANDS - BAND    221; K    1; EIG -2.0665400E-02 AU
 TTTTTTTTTTTTTTTTTTTTTTTTTTTTTT PDIG        TELAPSE      633.71 TCPU      629.48
 CHARGE NORMALIZATION FACTOR   1.00000000
 TOTAL ATOMIC CHARGES:
  10.7616463  10.7616463  10.7615163  10.7615163  23.1513916  23.1513916
  23.1513587  23.1513587  23.1263997  23.1263997  23.1265922  23.1265922
   8.8828529   8.8828529   8.8797489   8.8797489   8.7641773   8.7641773
   8.7643087   8.7643087   8.8828899   8.8828899   8.8796478   8.8796478
   8.7743877   8.7743877   8.7993202   8.7993202   8.8602035   8.8602035
   8.8601060   8.8601060   8.7744171   8.7744171   8.7990352   8.7990352
 TTTTTTTTTTTTTTTTTTTTTTTTTTTTTT MOQGAD      TELAPSE      633.72 TCPU      629.49
 TTTTTTTTTTTTTTTTTTTTTTTTTTTTTT SHELLXN     TELAPSE      660.69 TCPU      656.38
 TTTTTTTTTTTTTTTTTTTTTTTTTTTTTT MONMO3      TELAPSE      661.01 TCPU      656.69
 NUMERICALLY INTEGRATED DENSITY    439.9999760466
 TTTTTTTTTTTTTTTTTTTTTTTTTTTTTT NUMDFT      TELAPSE      664.77 TCPU      660.45
 CYC  18 ETOT(AU) -4.968814420881E+03 DETOT  1.48E-09 tst  3.61E-11 PX  1.10E-05
 TTTTTTTTTTTTTTTTTTTTTTTTTTTTTT DIIS        TELAPSE      664.89 TCPU      660.56
 DIIS TEST: 0.74749E-08 AT SCF   CYCLE  18 - DIIS ACTIVE - HISTORY:    17 CYCLES
 TTTTTTTTTTTTTTTTTTTTTTTTTTTTTT FDIK        TELAPSE      666.96 TCPU      662.63
 INSULATING STATE
 TOP OF VALENCE BANDS -    BAND    220; K   43; EIG -2.1131126E-01 AU
 TOP OF VALENCE BANDS -    BAND    220; K    1; EIG -2.1748853E-01 AU
 BOTTOM OF VIRTUAL BANDS - BAND    221; K   43; EIG -3.0219176E-02 AU
 DIRECT ENERGY BAND GAP:   4.9278 eV
 BOTTOM OF VIRTUAL BANDS - BAND    221; K    1; EIG -2.0665221E-02 AU
 TTTTTTTTTTTTTTTTTTTTTTTTTTTTTT PDIG        TELAPSE      667.48 TCPU      663.14
 CHARGE NORMALIZATION FACTOR   1.00000000
 TOTAL ATOMIC CHARGES:
  10.7616488  10.7616488  10.7615178  10.7615178  23.1513914  23.1513914
  23.1513599  23.1513599  23.1263964  23.1263964  23.1265883  23.1265883
   8.8828606   8.8828606   8.8797526   8.8797526   8.7641624   8.7641624
   8.7643002   8.7643002   8.8828862   8.8828862   8.8796593   8.8796593
   8.7743997   8.7743997   8.7993234   8.7993234   8.8601905   8.8601905
   8.8600988   8.8600988   8.7744129   8.7744129   8.7990509   8.7990509
 TTTTTTTTTTTTTTTTTTTTTTTTTTTTTT MOQGAD      TELAPSE      667.49 TCPU      663.15
 TTTTTTTTTTTTTTTTTTTTTTTTTTTTTT SHELLXN     TELAPSE      694.43 TCPU      690.09
 TTTTTTTTTTTTTTTTTTTTTTTTTTTTTT MONMO3      TELAPSE      694.75 TCPU      690.41
 NUMERICALLY INTEGRATED DENSITY    439.9999760465
 TTTTTTTTTTTTTTTTTTTTTTTTTTTTTT NUMDFT      TELAPSE      698.52 TCPU      694.17
 CYC  19 ETOT(AU) -4.968814420881E+03 DETOT  1.17E-10 tst  3.09E-12 PX  4.05E-06
 TTTTTTTTTTTTTTTTTTTTTTTTTTTTTT DIIS        TELAPSE      698.64 TCPU      694.28
 DIIS TEST: 0.31006E-08 AT SCF   CYCLE  19 - DIIS ACTIVE - HISTORY:    18 CYCLES
 TTTTTTTTTTTTTTTTTTTTTTTTTTTTTT FDIK        TELAPSE      700.33 TCPU      695.97
 INSULATING STATE
 TOP OF VALENCE BANDS -    BAND    220; K   43; EIG -2.1131114E-01 AU
 TOP OF VALENCE BANDS -    BAND    220; K    1; EIG -2.1748852E-01 AU
 BOTTOM OF VIRTUAL BANDS - BAND    221; K   43; EIG -3.0219332E-02 AU
 DIRECT ENERGY BAND GAP:   4.9278 eV
 BOTTOM OF VIRTUAL BANDS - BAND    221; K    1; EIG -2.0665134E-02 AU
 TTTTTTTTTTTTTTTTTTTTTTTTTTTTTT PDIG        TELAPSE      700.84 TCPU      696.48
 CHARGE NORMALIZATION FACTOR   1.00000000
 TOTAL ATOMIC CHARGES:
  10.7616482  10.7616482  10.7615173  10.7615173  23.1513968  23.1513968
  23.1513649  23.1513649  23.1263917  23.1263917  23.1265841  23.1265841
[...]
-rw-r--r-- 1 fbodo linuxusers         0 Dec 26 09:39 fort.8.pe007
-rw-r--r-- 1 fbodo linuxusers         0 Dec 26 09:39 fort.8.pe008
-rw-r--r-- 1 fbodo linuxusers         0 Dec 26 09:39 fort.8.pe009
-rw-r--r-- 1 fbodo linuxusers         0 Dec 26 09:39 fort.8.pe010
-rw-r--r-- 1 fbodo linuxusers         0 Dec 26 09:39 fort.8.pe011
-rw-r--r-- 1 fbodo linuxusers         0 Dec 26 09:39 fort.8.pe012
-rw-r--r-- 1 fbodo linuxusers         0 Dec 26 09:39 fort.8.pe013
-rw-r--r-- 1 fbodo linuxusers         0 Dec 26 09:39 fort.8.pe014
-rw-r--r-- 1 fbodo linuxusers         0 Dec 26 09:39 fort.8.pe015
-rw-r--r-- 1 fbodo linuxusers         0 Dec 26 09:39 fort.8.pe016
-rw-r--r-- 1 fbodo linuxusers         0 Dec 26 09:39 fort.8.pe017
-rw-r--r-- 1 fbodo linuxusers         0 Dec 26 09:39 fort.8.pe018
-rw-r--r-- 1 fbodo linuxusers         0 Dec 26 09:39 fort.8.pe019
-rw-r--r-- 1 fbodo linuxusers         0 Dec 26 09:39 fort.8.pe020
-rw-r--r-- 1 fbodo linuxusers         0 Dec 26 09:39 fort.8.pe021
-rw-r--r-- 1 fbodo linuxusers         0 Dec 26 09:39 fort.8.pe022
-rw-r--r-- 1 fbodo linuxusers         0 Dec 26 09:39 fort.8.pe023
-rw-r--r-- 1 fbodo linuxusers         0 Dec 26 09:39 fort.8.pe024
-rw-r--r-- 1 fbodo linuxusers         0 Dec 26 09:39 fort.8.pe025
-rw-r--r-- 1 fbodo linuxusers         0 Dec 26 09:39 fort.8.pe026
-rw-r--r-- 1 fbodo linuxusers         0 Dec 26 09:39 fort.8.pe027
-rw-r--r-- 1 fbodo linuxusers         0 Dec 26 09:39 fort.8.pe028
-rw-r--r-- 1 fbodo linuxusers         0 Dec 26 09:39 fort.8.pe029
-rw-r--r-- 1 fbodo linuxusers         0 Dec 26 09:39 fort.8.pe030
-rw-r--r-- 1 fbodo linuxusers         0 Dec 26 09:39 fort.8.pe031
-rw-r--r-- 1 fbodo linuxusers         0 Dec 26 09:39 fort.8.pe032
-rw-r--r-- 1 fbodo linuxusers         0 Dec 26 09:39 fort.8.pe033
-rw-r--r-- 1 fbodo linuxusers         0 Dec 26 09:39 fort.8.pe034
-rw-r--r-- 1 fbodo linuxusers         0 Dec 26 09:39 fort.8.pe035
-rw-r--r-- 1 fbodo linuxusers   5068936 Dec 26 18:03 fort.8.pe036
-rw-r--r-- 1 fbodo linuxusers  10137864 Dec 26 18:03 fort.8.pe037
-rw-r--r-- 1 fbodo linuxusers  10137864 Dec 26 18:03 fort.8.pe038
-rw-r--r-- 1 fbodo linuxusers   5068936 Dec 26 18:03 fort.8.pe039
-rw-r--r-- 1 fbodo linuxusers   2534472 Dec 26 18:03 fort.8.pe040
-rw-r--r-- 1 fbodo linuxusers   2534472 Dec 26 18:03 fort.8.pe041
-rw-r--r-- 1 fbodo linuxusers  10137864 Dec 26 18:03 fort.8.pe042
-rw-r--r-- 1 fbodo linuxusers  10137864 Dec 26 18:03 fort.8.pe043
-rw-r--r-- 1 fbodo linuxusers   2534472 Dec 26 18:03 fort.8.pe044
-rw-r--r-- 1 fbodo linuxusers   2534472 Dec 26 18:03 fort.8.pe045
-rw-r--r-- 1 fbodo linuxusers   2534472 Dec 26 18:03 fort.8.pe046
-rw-r--r-- 1 fbodo linuxusers   2534472 Dec 26 18:03 fort.8.pe047
-rw-r--r-- 1 fbodo linuxusers  10137864 Dec 26 18:03 fort.8.pe048
-rw-r--r-- 1 fbodo linuxusers  10137864 Dec 26 18:03 fort.8.pe049
-rw-r--r-- 1 fbodo linuxusers   2534472 Dec 26 18:03 fort.8.pe050
-rw-r--r-- 1 fbodo linuxusers   2534472 Dec 26 18:03 fort.8.pe051
-rw-r--r-- 1 fbodo linuxusers   1267240 Dec 26 18:03 fort.8.pe052
-rw-r--r-- 1 fbodo linuxusers   1267240 Dec 26 18:03 fort.8.pe053
-rw-r--r-- 1 fbodo linuxusers  10137864 Dec 26 18:03 fort.8.pe054
-rw-r--r-- 1 fbodo linuxusers  10137864 Dec 26 18:03 fort.8.pe055
-rw-r--r-- 1 fbodo linuxusers   1267240 Dec 26 18:03 fort.8.pe056
-rw-r--r-- 1 fbodo linuxusers   1267240 Dec 26 18:03 fort.8.pe057
-rw-r--r-- 1 fbodo linuxusers  10137864 Dec 26 18:03 fort.8.pe058
-rw-r--r-- 1 fbodo linuxusers  10137864 Dec 26 18:03 fort.8.pe059
-rw-r--r-- 1 fbodo linuxusers  10137864 Dec 26 18:03 fort.8.pe060
-rw-r--r-- 1 fbodo linuxusers  10137864 Dec 26 18:03 fort.8.pe061
-rw-r--r-- 1 fbodo linuxusers  10137864 Dec 26 18:03 fort.8.pe062
-rw-r--r-- 1 fbodo linuxusers  10137864 Dec 26 18:03 fort.8.pe063
-rw-r--r-- 1 fbodo linuxusers  10137864 Dec 26 18:03 fort.8.pe064
-rw-r--r-- 1 fbodo linuxusers  10137864 Dec 26 18:03 fort.8.pe065
-rw-r--r-- 1 fbodo linuxusers  10137864 Dec 26 18:03 fort.8.pe066
-rw-r--r-- 1 fbodo linuxusers  10137864 Dec 26 18:03 fort.8.pe067
-rw-r--r-- 1 fbodo linuxusers  10137864 Dec 26 18:03 fort.8.pe068
-rw-r--r-- 1 fbodo linuxusers  10137864 Dec 26 18:03 fort.8.pe069
-rw-r--r-- 1 fbodo linuxusers  10137864 Dec 26 18:03 fort.8.pe070
-rw-r--r-- 1 fbodo linuxusers  10137864 Dec 26 18:03 fort.8.pe071
-rw-r--r-- 1 fbodo linuxusers  10137864 Dec 26 18:03 fort.8.pe072
-rw-r--r-- 1 fbodo linuxusers  10137864 Dec 26 18:03 fort.8.pe073
-rw-r--r-- 1 fbodo linuxusers  10137864 Dec 26 18:03 fort.8.pe074
-rw-r--r-- 1 fbodo linuxusers  10137864 Dec 26 18:03 fort.8.pe075
-rw-r--r-- 1 fbodo linuxusers  10137864 Dec 26 18:03 fort.8.pe076
-rw-r--r-- 1 fbodo linuxusers  10137864 Dec 26 18:03 fort.8.pe077
-rw-r--r-- 1 fbodo linuxusers  10137864 Dec 26 18:03 fort.8.pe078
-rw-r--r-- 1 fbodo linuxusers  10137864 Dec 26 18:03 fort.8.pe079
-rw-r--r-- 1 fbodo linuxusers  10137864 Dec 26 18:03 fort.8.pe080
-rw-r--r-- 1 fbodo linuxusers  10137864 Dec 26 18:03 fort.8.pe081
-rw-r--r-- 1 fbodo linuxusers  10137864 Dec 26 18:03 fort.8.pe082
-rw-r--r-- 1 fbodo linuxusers  10137864 Dec 26 18:03 fort.8.pe083
-rw-r--r-- 1 fbodo linuxusers  10137864 Dec 26 18:03 fort.8.pe084
-rw-r--r-- 1 fbodo linuxusers  10137864 Dec 26 18:03 fort.8.pe085
-rw-r--r-- 1 fbodo linuxusers  10137864 Dec 26 18:03 fort.8.pe086
-rw-r--r-- 1 fbodo linuxusers  10137864 Dec 26 18:03 fort.8.pe087
-rw-r--r-- 1 fbodo linuxusers  10137864 Dec 26 18:03 fort.8.pe088
-rw-r--r-- 1 fbodo linuxusers  10137864 Dec 26 18:03 fort.8.pe089
-rw-r--r-- 1 fbodo linuxusers  10137864 Dec 26 18:03 fort.8.pe090
-rw-r--r-- 1 fbodo linuxusers  10137864 Dec 26 18:03 fort.8.pe091
-rw-r--r-- 1 fbodo linuxusers  10137864 Dec 26 18:03 fort.8.pe092
-rw-r--r-- 1 fbodo linuxusers  10137864 Dec 26 18:03 fort.8.pe093
-rw-r--r-- 1 fbodo linuxusers  10137864 Dec 26 18:03 fort.8.pe094
-rw-r--r-- 1 fbodo linuxusers  10137864 Dec 26 18:03 fort.8.pe095
-rw-r--r-- 1 fbodo linuxusers  10137864 Dec 26 18:03 fort.8.pe096
-rw-r--r-- 1 fbodo linuxusers  10137864 Dec 26 18:03 fort.8.pe097
-rw-r--r-- 1 fbodo linuxusers  10137864 Dec 26 18:03 fort.8.pe098
-rw-r--r-- 1 fbodo linuxusers  10137864 Dec 26 18:03 fort.8.pe099
-rw-r--r-- 1 fbodo linuxusers  10137864 Dec 26 18:03 fort.8.pe100
-rw-r--r-- 1 fbodo linuxusers  10137864 Dec 26 18:03 fort.8.pe101
-rw-r--r-- 1 fbodo linuxusers  10137864 Dec 26 18:03 fort.8.pe102
-rw-r--r-- 1 fbodo linuxusers  10137864 Dec 26 18:03 fort.8.pe103
-rw-r--r-- 1 fbodo linuxusers  10137864 Dec 26 18:03 fort.8.pe104
-rw-r--r-- 1 fbodo linuxusers  10137864 Dec 26 18:03 fort.8.pe105
-rw-r--r-- 1 fbodo linuxusers   5068936 Dec 26 18:03 fort.8.pe106
-rw-r--r-- 1 fbodo linuxusers  10137864 Dec 26 18:03 fort.8.pe107
-rw-r--r-- 1 fbodo linuxusers  10137864 Dec 26 18:03 fort.8.pe108
-rw-r--r-- 1 fbodo linuxusers   5068936 Dec 26 18:03 fort.8.pe109
-rw-r--r-- 1 fbodo linuxusers   2534472 Dec 26 18:03 fort.8.pe110
-rw-r--r-- 1 fbodo linuxusers   2534472 Dec 26 18:03 fort.8.pe111
-rw-r--r-- 1 fbodo linuxusers  10137864 Dec 26 18:03 fort.8.pe112
-rw-r--r-- 1 fbodo linuxusers  10137864 Dec 26 18:03 fort.8.pe113
-rw-r--r-- 1 fbodo linuxusers   2534472 Dec 26 18:03 fort.8.pe114
-rw-r--r-- 1 fbodo linuxusers   2534472 Dec 26 18:03 fort.8.pe115
-rw-r--r-- 1 fbodo linuxusers   2534472 Dec 26 18:03 fort.8.pe116
-rw-r--r-- 1 fbodo linuxusers   2534472 Dec 26 18:03 fort.8.pe117
-rw-r--r-- 1 fbodo linuxusers  10137864 Dec 26 18:03 fort.8.pe118
-rw-r--r-- 1 fbodo linuxusers  10137864 Dec 26 18:03 fort.8.pe119
-rw-r--r-- 1 fbodo linuxusers   2534472 Dec 26 18:03 fort.8.pe120
-rw-r--r-- 1 fbodo linuxusers   2534472 Dec 26 18:03 fort.8.pe121
-rw-r--r-- 1 fbodo linuxusers   1267240 Dec 26 18:03 fort.8.pe122
-rw-r--r-- 1 fbodo linuxusers   1267240 Dec 26 18:03 fort.8.pe123
-rw-r--r-- 1 fbodo linuxusers  10137864 Dec 26 18:03 fort.8.pe124
-rw-r--r-- 1 fbodo linuxusers  10137864 Dec 26 18:03 fort.8.pe125
-rw-r--r-- 1 fbodo linuxusers   1267240 Dec 26 18:03 fort.8.pe126
-rw-r--r-- 1 fbodo linuxusers   1267240 Dec 26 18:03 fort.8.pe127
-rw-r----- 1 fbodo linuxusers  13416884 Dec 26 18:08 fort.9
-rw-r--r-- 1 fbodo linuxusers   8947232 Dec 26 18:03 fort.95.pe000
-rw-r--r-- 1 fbodo linuxusers   8947232 Dec 26 18:03 fort.95.pe001
-rw-r--r-- 1 fbodo linuxusers   8947232 Dec 26 18:03 fort.95.pe002
-rw-r--r-- 1 fbodo linuxusers   8947232 Dec 26 18:03 fort.95.pe003
-rw-r--r-- 1 fbodo linuxusers   8947232 Dec 26 18:03 fort.95.pe004
-rw-r--r-- 1 fbodo linuxusers   8947232 Dec 26 18:03 fort.95.pe005
-rw-r--r-- 1 fbodo linuxusers   8947232 Dec 26 18:03 fort.95.pe006
-rw-r--r-- 1 fbodo linuxusers   8947232 Dec 26 18:03 fort.95.pe007
-rw-r--r-- 1 fbodo linuxusers   8947232 Dec 26 18:03 fort.95.pe008
-rw-r--r-- 1 fbodo linuxusers   8947232 Dec 26 18:03 fort.95.pe009
-rw-r--r-- 1 fbodo linuxusers   8947232 Dec 26 18:03 fort.95.pe010
-rw-r--r-- 1 fbodo linuxusers   8947232 Dec 26 18:03 fort.95.pe011
-rw-r--r-- 1 fbodo linuxusers   8947232 Dec 26 18:03 fort.95.pe012
-rw-r--r-- 1 fbodo linuxusers   8947232 Dec 26 18:03 fort.95.pe013
-rw-r--r-- 1 fbodo linuxusers   8947232 Dec 26 18:03 fort.95.pe014
-rw-r--r-- 1 fbodo linuxusers   8947232 Dec 26 18:03 fort.95.pe015
-rw-r--r-- 1 fbodo linuxusers   8947232 Dec 26 18:03 fort.95.pe016
-rw-r--r-- 1 fbodo linuxusers   8947232 Dec 26 18:03 fort.95.pe017
-rw-r--r-- 1 fbodo linuxusers   8947232 Dec 26 18:03 fort.95.pe018
-rw-r--r-- 1 fbodo linuxusers   8947232 Dec 26 18:03 fort.95.pe019
-rw-r--r-- 1 fbodo linuxusers   8947232 Dec 26 18:03 fort.95.pe020
-rw-r--r-- 1 fbodo linuxusers   8947232 Dec 26 18:03 fort.95.pe021
-rw-r--r-- 1 fbodo linuxusers   8947232 Dec 26 18:03 fort.95.pe022
-rw-r--r-- 1 fbodo linuxusers   8947232 Dec 26 18:03 fort.95.pe023
-rw-r--r-- 1 fbodo linuxusers   8947232 Dec 26 18:03 fort.95.pe024
-rw-r--r-- 1 fbodo linuxusers   8947232 Dec 26 18:03 fort.95.pe025
-rw-r--r-- 1 fbodo linuxusers   8947232 Dec 26 18:03 fort.95.pe026
-rw-r--r-- 1 fbodo linuxusers   8947232 Dec 26 18:03 fort.95.pe027
-rw-r--r-- 1 fbodo linuxusers   8947232 Dec 26 18:03 fort.95.pe028
-rw-r--r-- 1 fbodo linuxusers   8947232 Dec 26 18:03 fort.95.pe029
-rw-r--r-- 1 fbodo linuxusers   8947232 Dec 26 18:03 fort.95.pe030
-rw-r--r-- 1 fbodo linuxusers   8947232 Dec 26 18:03 fort.95.pe031
-rw-r--r-- 1 fbodo linuxusers   8947232 Dec 26 18:03 fort.95.pe032
-rw-r--r-- 1 fbodo linuxusers   8947232 Dec 26 18:03 fort.95.pe033
-rw-r--r-- 1 fbodo linuxusers   8947232 Dec 26 18:03 fort.95.pe034
-rw-r--r-- 1 fbodo linuxusers   8947232 Dec 26 18:03 fort.95.pe035
-rw-r--r-- 1 fbodo linuxusers   8947232 Dec 26 18:03 fort.95.pe036
-rw-r--r-- 1 fbodo linuxusers   8947232 Dec 26 18:03 fort.95.pe037
-rw-r--r-- 1 fbodo linuxusers   8947232 Dec 26 18:03 fort.95.pe038
-rw-r--r-- 1 fbodo linuxusers   8947232 Dec 26 18:03 fort.95.pe039
-rw-r--r-- 1 fbodo linuxusers   8947232 Dec 26 18:03 fort.95.pe040
-rw-r--r-- 1 fbodo linuxusers   8947232 Dec 26 18:03 fort.95.pe041
-rw-r--r-- 1 fbodo linuxusers   8947232 Dec 26 18:03 fort.95.pe042
-rw-r--r-- 1 fbodo linuxusers   8947232 Dec 26 18:03 fort.95.pe043
-rw-r--r-- 1 fbodo linuxusers   8947232 Dec 26 18:03 fort.95.pe044
-rw-r--r-- 1 fbodo linuxusers   8947232 Dec 26 18:03 fort.95.pe045
-rw-r--r-- 1 fbodo linuxusers   8947232 Dec 26 18:03 fort.95.pe046
-rw-r--r-- 1 fbodo linuxusers   8947232 Dec 26 18:03 fort.95.pe047
-rw-r--r-- 1 fbodo linuxusers   8947232 Dec 26 18:03 fort.95.pe048
-rw-r--r-- 1 fbodo linuxusers   8947232 Dec 26 18:03 fort.95.pe049
-rw-r--r-- 1 fbodo linuxusers   8947232 Dec 26 18:03 fort.95.pe050
-rw-r--r-- 1 fbodo linuxusers   8947232 Dec 26 18:03 fort.95.pe051
-rw-r--r-- 1 fbodo linuxusers   8947232 Dec 26 18:03 fort.95.pe052
-rw-r--r-- 1 fbodo linuxusers   8947232 Dec 26 18:03 fort.95.pe053
-rw-r--r-- 1 fbodo linuxusers   8947232 Dec 26 18:03 fort.95.pe054
-rw-r--r-- 1 fbodo linuxusers   8947232 Dec 26 18:03 fort.95.pe055
-rw-r--r-- 1 fbodo linuxusers   8947232 Dec 26 18:03 fort.95.pe056
-rw-r--r-- 1 fbodo linuxusers   8947232 Dec 26 18:03 fort.95.pe057
-rw-r--r-- 1 fbodo linuxusers   8947232 Dec 26 18:03 fort.95.pe058
-rw-r--r-- 1 fbodo linuxusers   8947232 Dec 26 18:03 fort.95.pe059
-rw-r--r-- 1 fbodo linuxusers   8947232 Dec 26 18:03 fort.95.pe060
-rw-r--r-- 1 fbodo linuxusers   8947232 Dec 26 18:03 fort.95.pe061
-rw-r--r-- 1 fbodo linuxusers   8947232 Dec 26 18:03 fort.95.pe062
-rw-r--r-- 1 fbodo linuxusers   8947232 Dec 26 18:03 fort.95.pe063
-rw-r--r-- 1 fbodo linuxusers   8947232 Dec 26 18:03 fort.95.pe064
-rw-r--r-- 1 fbodo linuxusers   8947232 Dec 26 18:03 fort.95.pe065
-rw-r--r-- 1 fbodo linuxusers   8947232 Dec 26 18:03 fort.95.pe066
-rw-r--r-- 1 fbodo linuxusers   8947232 Dec 26 18:03 fort.95.pe067
-rw-r--r-- 1 fbodo linuxusers   8947232 Dec 26 18:03 fort.95.pe068
-rw-r--r-- 1 fbodo linuxusers   8947232 Dec 26 18:03 fort.95.pe069
-rw-r--r-- 1 fbodo linuxusers   8947232 Dec 26 18:03 fort.95.pe070
-rw-r--r-- 1 fbodo linuxusers   8947232 Dec 26 18:03 fort.95.pe071
-rw-r--r-- 1 fbodo linuxusers   8947232 Dec 26 18:03 fort.95.pe072
-rw-r--r-- 1 fbodo linuxusers   8947232 Dec 26 18:03 fort.95.pe073
-rw-r--r-- 1 fbodo linuxusers   8947232 Dec 26 18:03 fort.95.pe074
-rw-r--r-- 1 fbodo linuxusers   8947232 Dec 26 18:03 fort.95.pe075
-rw-r--r-- 1 fbodo linuxusers   8947232 Dec 26 18:03 fort.95.pe076
-rw-r--r-- 1 fbodo linuxusers   8947232 Dec 26 18:03 fort.95.pe077
-rw-r--r-- 1 fbodo linuxusers   8947232 Dec 26 18:03 fort.95.pe078
-rw-r--r-- 1 fbodo linuxusers   8947232 Dec 26 18:03 fort.95.pe079
-rw-r--r-- 1 fbodo linuxusers   8947232 Dec 26 18:03 fort.95.pe080
-rw-r--r-- 1 fbodo linuxusers   8947232 Dec 26 18:03 fort.95.pe081
-rw-r--r-- 1 fbodo linuxusers   8947232 Dec 26 18:03 fort.95.pe082
-rw-r--r-- 1 fbodo linuxusers   8947232 Dec 26 18:03 fort.95.pe083
-rw-r--r-- 1 fbodo linuxusers   8947232 Dec 26 18:03 fort.95.pe084
-rw-r--r-- 1 fbodo linuxusers   8947232 Dec 26 18:03 fort.95.pe085
-rw-r--r-- 1 fbodo linuxusers   8947232 Dec 26 18:03 fort.95.pe086
-rw-r--r-- 1 fbodo linuxusers   8947232 Dec 26 18:03 fort.95.pe087
-rw-r--r-- 1 fbodo linuxusers   8947232 Dec 26 18:03 fort.95.pe088
-rw-r--r-- 1 fbodo linuxusers   8947232 Dec 26 18:03 fort.95.pe089
-rw-r--r-- 1 fbodo linuxusers   8947232 Dec 26 18:03 fort.95.pe090
-rw-r--r-- 1 fbodo linuxusers   8947232 Dec 26 18:03 fort.95.pe091
-rw-r--r-- 1 fbodo linuxusers   8947232 Dec 26 18:03 fort.95.pe092
-rw-r--r-- 1 fbodo linuxusers   8947232 Dec 26 18:03 fort.95.pe093
-rw-r--r-- 1 fbodo linuxusers   8947232 Dec 26 18:03 fort.95.pe094
-rw-r--r-- 1 fbodo linuxusers   8947232 Dec 26 18:03 fort.95.pe095
-rw-r--r-- 1 fbodo linuxusers   8947232 Dec 26 18:03 fort.95.pe096
-rw-r--r-- 1 fbodo linuxusers   8947232 Dec 26 18:03 fort.95.pe097
-rw-r--r-- 1 fbodo linuxusers   8947232 Dec 26 18:03 fort.95.pe098
-rw-r--r-- 1 fbodo linuxusers   8947232 Dec 26 18:03 fort.95.pe099
-rw-r--r-- 1 fbodo linuxusers   8947232 Dec 26 18:03 fort.95.pe100
-rw-r--r-- 1 fbodo linuxusers   8947232 Dec 26 18:03 fort.95.pe101
-rw-r--r-- 1 fbodo linuxusers   8947232 Dec 26 18:03 fort.95.pe102
-rw-r--r-- 1 fbodo linuxusers   8947232 Dec 26 18:03 fort.95.pe103
-rw-r--r-- 1 fbodo linuxusers   8947232 Dec 26 18:03 fort.95.pe104
-rw-r--r-- 1 fbodo linuxusers   8947232 Dec 26 18:03 fort.95.pe105
-rw-r--r-- 1 fbodo linuxusers   8947232 Dec 26 18:03 fort.95.pe106
-rw-r--r-- 1 fbodo linuxusers   8947232 Dec 26 18:03 fort.95.pe107
-rw-r--r-- 1 fbodo linuxusers   8947232 Dec 26 18:03 fort.95.pe108
-rw-r--r-- 1 fbodo linuxusers   8947232 Dec 26 18:03 fort.95.pe109
-rw-r--r-- 1 fbodo linuxusers   8947232 Dec 26 18:03 fort.95.pe110
-rw-r--r-- 1 fbodo linuxusers   8947232 Dec 26 18:03 fort.95.pe111
-rw-r--r-- 1 fbodo linuxusers   8947232 Dec 26 18:03 fort.95.pe112
-rw-r--r-- 1 fbodo linuxusers   8947232 Dec 26 18:03 fort.95.pe113
-rw-r--r-- 1 fbodo linuxusers   8947232 Dec 26 18:03 fort.95.pe114
-rw-r--r-- 1 fbodo linuxusers   8947232 Dec 26 18:03 fort.95.pe115
-rw-r--r-- 1 fbodo linuxusers   8947232 Dec 26 18:03 fort.95.pe116
-rw-r--r-- 1 fbodo linuxusers   8947232 Dec 26 18:03 fort.95.pe117
-rw-r--r-- 1 fbodo linuxusers   8947232 Dec 26 18:03 fort.95.pe118
-rw-r--r-- 1 fbodo linuxusers   8947232 Dec 26 18:03 fort.95.pe119
-rw-r--r-- 1 fbodo linuxusers   8947232 Dec 26 18:03 fort.95.pe120
-rw-r--r-- 1 fbodo linuxusers   8947232 Dec 26 18:03 fort.95.pe121
-rw-r--r-- 1 fbodo linuxusers   8947232 Dec 26 18:03 fort.95.pe122
-rw-r--r-- 1 fbodo linuxusers   8947232 Dec 26 18:03 fort.95.pe123
-rw-r--r-- 1 fbodo linuxusers   8947232 Dec 26 18:03 fort.95.pe124
-rw-r--r-- 1 fbodo linuxusers   8947232 Dec 26 18:03 fort.95.pe125
-rw-r--r-- 1 fbodo linuxusers   8947232 Dec 26 18:03 fort.95.pe126
-rw-r--r-- 1 fbodo linuxusers   8947232 Dec 26 18:03 fort.95.pe127
-rw-r--r-- 1 fbodo linuxusers  35279718 Dec 26 18:08 fort.98
-rw-r--r-- 1 fbodo linuxusers     69042 Dec 26 18:08 HESSOPT.DAT
-rw-r----- 1 fbodo linuxusers      1404 Dec 26 09:39 INPUT
-rw-r--r-- 1 fbodo linuxusers      3122 Dec 26 09:55 optc001
-rw-r--r-- 1 fbodo linuxusers      3122 Dec 26 10:10 optc002
-rw-r--r-- 1 fbodo linuxusers      3122 Dec 26 10:25 optc003
-rw-r--r-- 1 fbodo linuxusers      3122 Dec 26 10:41 optc004
-rw-r--r-- 1 fbodo linuxusers      3122 Dec 26 10:54 optc005
-rw-r--r-- 1 fbodo linuxusers      3122 Dec 26 11:10 optc006
-rw-r--r-- 1 fbodo linuxusers      3122 Dec 26 11:21 optc007
-rw-r--r-- 1 fbodo linuxusers      3122 Dec 26 11:36 optc008
-rw-r--r-- 1 fbodo linuxusers      3122 Dec 26 11:52 optc009
-rw-r--r-- 1 fbodo linuxusers      3122 Dec 26 12:08 optc010
-rw-r--r-- 1 fbodo linuxusers      3122 Dec 26 12:21 optc011
-rw-r--r-- 1 fbodo linuxusers      3122 Dec 26 12:37 optc012
-rw-r--r-- 1 fbodo linuxusers      3122 Dec 26 12:52 optc013
-rw-r--r-- 1 fbodo linuxusers      3122 Dec 26 13:02 optc014
-rw-r--r-- 1 fbodo linuxusers      3122 Dec 26 13:17 optc015
-rw-r--r-- 1 fbodo linuxusers      3122 Dec 26 13:29 optc016
-rw-r--r-- 1 fbodo linuxusers      3122 Dec 26 13:42 optc017
-rw-r--r-- 1 fbodo linuxusers      3122 Dec 26 13:56 optc018
-rw-r--r-- 1 fbodo linuxusers      3122 Dec 26 14:11 optc019
-rw-r--r-- 1 fbodo linuxusers      3122 Dec 26 14:24 optc020
-rw-r--r-- 1 fbodo linuxusers      3122 Dec 26 14:36 optc021
-rw-r--r-- 1 fbodo linuxusers      3122 Dec 26 14:46 optc022
-rw-r--r-- 1 fbodo linuxusers      3122 Dec 26 14:57 optc023
-rw-r--r-- 1 fbodo linuxusers      3122 Dec 26 15:08 optc024
-rw-r--r-- 1 fbodo linuxusers      3122 Dec 26 15:19 optc025
-rw-r--r-- 1 fbodo linuxusers      3122 Dec 26 15:28 optc026
-rw-r--r-- 1 fbodo linuxusers      3122 Dec 26 15:38 optc027
-rw-r--r-- 1 fbodo linuxusers      3122 Dec 26 15:47 optc028
-rw-r--r-- 1 fbodo linuxusers      3122 Dec 26 15:56 optc029
-rw-r--r-- 1 fbodo linuxusers      3122 Dec 26 16:06 optc030
-rw-r--r-- 1 fbodo linuxusers      3122 Dec 26 16:16 optc031
-rw-r--r-- 1 fbodo linuxusers      3122 Dec 26 16:24 optc032
-rw-r--r-- 1 fbodo linuxusers      3122 Dec 26 16:34 optc033
-rw-r--r-- 1 fbodo linuxusers      3122 Dec 26 16:45 optc034
-rw-r--r-- 1 fbodo linuxusers      3122 Dec 26 16:56 optc035
-rw-r--r-- 1 fbodo linuxusers      3122 Dec 26 17:06 optc036
-rw-r--r-- 1 fbodo linuxusers      3122 Dec 26 17:15 optc037
-rw-r--r-- 1 fbodo linuxusers      3122 Dec 26 17:25 optc038
-rw-r--r-- 1 fbodo linuxusers      3122 Dec 26 17:35 optc039
-rw-r--r-- 1 fbodo linuxusers      3122 Dec 26 17:47 optc040
-rw-r--r-- 1 fbodo linuxusers      3122 Dec 26 17:57 optc041
-rw-r--r-- 1 fbodo linuxusers      3122 Dec 26 18:08 optc042
-rw-r----- 1 fbodo linuxusers  84805704 Dec 26 18:08 OPTINFO.DAT
-rwxr-xr-x 1 fbodo linuxusers 112779232 Dec 26 09:39 Pcrystal
lrwxrwxrwx 1 fbodo linuxusers        84 Dec 26 09:39 SCFOUT.LOG -> /users/fbodo/Application/fbodo/Fili/Mg(IO3)2/P21/MgIO32_p21_OPT_exp_pbe0d3_1GPa.out2
================================================================================
Copying output file back on run directory...
================================================================================
Removing temporary directory /lustre/scratch/client/users/fbodo/prova/tmp_p1423597 from each node...
Job terminated
