nproc:128
Pcrystal executable in: /users/fbodo/SVN_PUB_NEW/bin/Linux-gfortran_new/std/Pcrystal
Master system: Linux c144 5.15.0-47-generic #51-Ubuntu SMP Thu Aug 11 07:51:15 UTC 2022 x86_64 x86_64 x86_64 GNU/Linux
ls -ltr $BINDIR
total 420340
-rwxr-xr-x 1 fbodo linuxusers 101580248 Oct 28 17:33 properties
-rwxr-xr-x 1 fbodo linuxusers 101643032 Oct 28 17:33 Pproperties
-rwxr-xr-x 1 fbodo linuxusers 112779232 Oct 28 17:33 Pcrystal
-rwxr-xr-x 1 fbodo linuxusers 112716416 Oct 28 17:33 crystal
================================================================================
Module loading in /lustre/scratch/client/users/fbodo/prova/tmp_p4105123
================================================================================
Loading gcc and openmpi modules ...
1) # module load gcc/11.2.0
2) # module load openmpi/4.1.6-a4ksrza
================================================================================
Starting Pcrystal SLURM job
================================================================================
Time: Thu Dec 26 10:01:09 AM CST 2024
SLURM job ID: 16982049
Master hostname: c144
User: fbodo
Input file: MgIO32_p21_OPT_exp_pbe0d3_3GPa.d12
Output file: MgIO32_p21_OPT_exp_pbe0d3_3GPa.out
Number of processors: 128
Nodes list: c144
================================================================================
Creating temporary directory /lustre/scratch/client/users/fbodo/prova/tmp_p4105123 on each node...
Copying input file MgIO32_p21_OPT_exp_pbe0d3_3GPa.d12 on each node...
Copying Pcrystal on each node...
================================================================================
Contents of input file
================================================================================
Mg(IO3)2 P21
CRYSTAL
0 0 0
4
10.97660273     4.40250069    11.02915488  119.944689
18
12    -4.926902326271E-01  4.303046691371E-01  2.541261220770E-01
12    -7.311716403415E-03 -6.969448394901E-02  2.458683358679E-01
53     1.662318343017E-01  4.669435750511E-01  9.149809784346E-02
53     3.337712031255E-01 -3.305070661993E-02  4.085076206545E-01
53    -1.664571679380E-01 -3.074583333546E-02  4.268155846319E-01
53    -3.335411449590E-01  4.692528452401E-01  7.318613831086E-02
 8     3.292308409503E-01 -3.228869224320E-01  1.288177770800E-01
 8     5.178406901128E-02 -3.125845979665E-01 -7.041206288962E-02
 8     1.336816761736E-01 -2.862770466305E-01  2.085270229240E-01
 8     3.663254237442E-01  2.137327160868E-01  2.914819703300E-01
 8     1.707684204650E-01  1.771117212600E-01  3.711807563559E-01
 8     4.482136305666E-01  1.874303350276E-01 -4.295839140135E-01
 8    -3.155180830499E-01  2.099778220373E-01  4.034881026803E-01
 8    -2.901076611074E-02  1.895376257131E-01 -4.229799456968E-01
 8    -1.398292743193E-01  1.642191759762E-01  2.923604914505E-01
 8    -3.601686137271E-01 -3.357774123640E-01  2.076403812887E-01
 8    -1.844800081418E-01 -2.900293927026E-01  9.651050541161E-02
 8    -4.709875175862E-01 -3.104640895293E-01 -7.701883445774E-02
OPTGEOM
EXTPRESS
0.0001019679821
END
BASISSET
POB-TZVP-REV2
DFT
PBE0-D3
HUGEGRID
END
TOLINTEG
9 9 9 9 27
TOLDEE
9
SHRINK
6 6
END
================================================================================
Time: Thu Dec 26 10:01:10 AM CST 2024
Starting Pcrystal job in /lustre/scratch/client/users/fbodo/prova/tmp_p4105123 on each node...
================================================================================

command /hpc/m3/spack/opt/spack/linux-ubuntu22.04-zen3/gcc-11.2.0/openmpi-4.1.6-a4ksrzarq4qdqcx545m6o47ytlwsgqyk/bin/mpirun -np 128 Pcrystal < /lustre/scratch/client/users/fbodo/prova/tmp_p4105123/INPUT
/hpc/m3/spack/opt/spack/linux-ubuntu22.04-zen3/gcc-11.2.0/openmpi-4.1.6-a4ksrzarq4qdqcx545m6o47ytlwsgqyk/bin/mpirun
         128 PROCESSORS WORKING

         
 *******************************************************************************
 *                                                                             *
 *                               CRYSTAL23                                     *
 *                      public : 1.0.1 - October 2022                          *
 *                       HTTP://WWW.CRYSTAL.UNITO.IT                           *
 *                                                                             *
 *                              MAIN AUTHORS                                   *
 *                                                                             *
 *  R. DOVESI(1,11), V.R. SAUNDERS(2), C. ROETTI(1,11), R. ORLANDO(1,11),      *
 *  C.M. ZICOVICH-WILSON(1,3), F. PASCALE(4), B. CIVALLERI(1,11),              *
 *  K. DOLL(5), N.M. HARRISON(6), I.J. BUSH(7), Ph. D'ARCO(8),                 *
 *  M. LLUNELL(9), M. CAUSA'(10), Y. NOEL(8), L. MASCHIO(1,11), A. ERBA(1,11)  *
 *  M. RE'RAT(14), S. CASASSA(1,11), B.G. SEARLE(2), J.K. DESMARAIS(1)         *
 *                                                                             *
 *        CONTRIBUTIONS TO THE CODE HAVE ALSO BEEN GIVEN BY                    *
 *                                                                             *
 *  M. FERRABONE(1,11), M. DE LA PIERRE(1,11), M. FERRERO(1,11),               *
 *  J. BAIMA(1,11), E. ALBANESE(1,11), M.F. PEINTINGER(12), R. BAST(13),       *
 *  B. KIRTMAN(15), V. LACIVITA(1,11), R. DEMICHELIS(1,16)                     *
 *  G. BRANDEBURG(17), S. SALUSTRO(1,11), G. SANSONE(1,11)                     *
 *  M.T. RUGGIERO(18), L.E. DAGA(1), L. DONA'(1), A. COSSARD(1)                *
 *                                                                             *
 * (1) THEORETICAL CHEMISTRY GROUP - UNIVERSITA' DI TORINO - TORINO (ITALY)    *
 * (2) SCIENTIFIC COMPUTING DEPARTMENT - STFC DARESBURY (UK)                   *
 * (3) UNIVERSIDAD AUTONOMA DEL ESTADO DE MORELOS - CUERNAVACA (MEXICO)        *
 * (4) UNIVERSITE' DE LORRAINE - NANCY (FRANCE)                                *
 * (5) UNIVERSITAET STUTTGART- STUTTGART (GERMANY)                             *
 * (6) IMPERIAL COLLEGE - LONDON (UK)                                          *
 * (7) SCIENTIFIC COMPUTING DEPARTMENT - STFC RAL (UK)                         *
 * (8) UPMC - SORBONNE UNIVERSITES - PARIS (FRANCE)                            *
 * (9) UNIVERSIDAD DE BARCELONA - BARCELONA (SPAIN)                            *
 *(10) UNIVERSITA' DI NAPOLI "FEDERICO II" - NAPOLI (ITALY)                    *
 *(11) NIS - NANOSTRUCTURED INTERFACES AND SURFACES - TORINO (ITALY)           *
 *(12) MPI FUER CHEMISCHE ENERGIEKONVERSION - MUELHEIM AN DER RUHR (GERMANY)   *
 *(13) UNIVERSITY OF TROMSO - TROMSO (NORWAY)                                  *
 *(14) UNIVERSITE' DE PAU ET DES PAYS DE L'ADOUR - PAU (FRANCE)                *
 *(15) UNIVERSITY OF CALIFORNIA SANTA BARBARA - SANTA BARBARA (USA)            *
 *(16) CURTIN UNIVERSITY - PERTH (AUSTRALIA)                                   *
 *(17) UNIVERSITY COLLEGE LONDON - LONDON (UK)                                 *
 *(18) UNIVERSITY OF VERMONT - BURLINGTON (USA)                                *
 *                                                                             *
 *******************************************************************************
 EEEEEEEEEE STARTING  DATE 26 12 2024 TIME 10:01:13.7
 Mg(IO3)2 P21                                                                    

 CRYSTAL CALCULATION
 (INPUT ACCORDING TO THE INTERNATIONAL TABLES FOR X-RAY CRYSTALLOGRAPHY)
 CRYSTAL FAMILY                       :  MONOCLINIC  
 CRYSTAL CLASS  (GROTH - 1921)        :  MONOCLINIC SPHENOIDAL                

 SPACE GROUP (NONCENTROSYMMETRIC)     :  P 21            

 LATTICE PARAMETERS  (ANGSTROMS AND DEGREES) - CONVENTIONAL CELL
        A           B           C        ALPHA        BETA       GAMMA
    10.97660     4.40250    11.02915    90.00000   119.94469    90.00000


 NUMBER OF IRREDUCIBLE ATOMS IN THE CONVENTIONAL CELL:   18

 INPUT COORDINATES

 ATOM AT. N.              COORDINATES
   1  12    -4.926902326271E-01  4.303046691371E-01  2.541261220770E-01
   2  12    -7.311716403415E-03 -6.969448394901E-02  2.458683358679E-01
   3  53     1.662318343017E-01  4.669435750511E-01  9.149809784346E-02
   4  53     3.337712031255E-01 -3.305070661993E-02  4.085076206545E-01
   5  53    -1.664571679380E-01 -3.074583333546E-02  4.268155846319E-01
   6  53    -3.335411449590E-01  4.692528452401E-01  7.318613831086E-02
   7   8     3.292308409503E-01 -3.228869224320E-01  1.288177770800E-01
   8   8     5.178406901128E-02 -3.125845979665E-01 -7.041206288962E-02
   9   8     1.336816761736E-01 -2.862770466305E-01  2.085270229240E-01
  10   8     3.663254237442E-01  2.137327160868E-01  2.914819703300E-01
  11   8     1.707684204650E-01  1.771117212600E-01  3.711807563559E-01
  12   8     4.482136305666E-01  1.874303350276E-01 -4.295839140135E-01
  13   8    -3.155180830499E-01  2.099778220373E-01  4.034881026803E-01
  14   8    -2.901076611074E-02  1.895376257131E-01 -4.229799456968E-01
  15   8    -1.398292743193E-01  1.642191759762E-01  2.923604914505E-01
  16   8    -3.601686137271E-01 -3.357774123640E-01  2.076403812887E-01
  17   8    -1.844800081418E-01 -2.900293927026E-01  9.651050541161E-02
  18   8    -4.709875175862E-01 -3.104640895293E-01 -7.701883445774E-02

 *******************************************************************************

 << INFORMATION >>: FROM NOW ON, ALL COORDINATES REFER TO THE PRIMITIVE CELL

 *******************************************************************************

 LATTICE PARAMETERS  (ANGSTROMS AND DEGREES) - PRIMITIVE CELL
       A          B          C        ALPHA      BETA     GAMMA        VOLUME
   10.97660    4.40250   11.02915    90.00000 119.94469  90.00000    461.829883

 COORDINATES OF THE EQUIVALENT ATOMS (FRACTIONAL UNITS)

 N. ATOM EQUIV AT. N.          X                  Y                  Z

   1   1   1   12 MG   -4.92690232627E-01  4.30304669137E-01  2.54126122077E-01
   2   1   2   12 MG    4.92690232627E-01 -6.96953308629E-02 -2.54126122077E-01

   3   2   1   12 MG   -7.31171640342E-03 -6.96944839490E-02  2.45868335868E-01
   4   2   2   12 MG    7.31171640342E-03  4.30305516051E-01 -2.45868335868E-01

   5   3   1   53 I     1.66231834302E-01  4.66943575051E-01  9.14980978435E-02
   6   3   2   53 I    -1.66231834302E-01 -3.30564249489E-02 -9.14980978435E-02

   7   4   1   53 I     3.33771203126E-01 -3.30507066199E-02  4.08507620655E-01
   8   4   2   53 I    -3.33771203126E-01  4.66949293380E-01 -4.08507620655E-01

   9   5   1   53 I    -1.66457167938E-01 -3.07458333355E-02  4.26815584632E-01
  10   5   2   53 I     1.66457167938E-01  4.69254166665E-01 -4.26815584632E-01

  11   6   1   53 I    -3.33541144959E-01  4.69252845240E-01  7.31861383109E-02
  12   6   2   53 I     3.33541144959E-01 -3.07471547599E-02 -7.31861383109E-02

  13   7   1    8 O     3.29230840950E-01 -3.22886922432E-01  1.28817777080E-01
  14   7   2    8 O    -3.29230840950E-01  1.77113077568E-01 -1.28817777080E-01

  15   8   1    8 O     5.17840690113E-02 -3.12584597967E-01 -7.04120628896E-02
  16   8   2    8 O    -5.17840690113E-02  1.87415402033E-01  7.04120628896E-02

  17   9   1    8 O     1.33681676174E-01 -2.86277046631E-01  2.08527022924E-01
  18   9   2    8 O    -1.33681676174E-01  2.13722953369E-01 -2.08527022924E-01

  19  10   1    8 O     3.66325423744E-01  2.13732716087E-01  2.91481970330E-01
  20  10   2    8 O    -3.66325423744E-01 -2.86267283913E-01 -2.91481970330E-01

  21  11   1    8 O     1.70768420465E-01  1.77111721260E-01  3.71180756356E-01
  22  11   2    8 O    -1.70768420465E-01 -3.22888278740E-01 -3.71180756356E-01

  23  12   1    8 O     4.48213630567E-01  1.87430335028E-01 -4.29583914013E-01
  24  12   2    8 O    -4.48213630567E-01 -3.12569664972E-01  4.29583914013E-01

  25  13   1    8 O    -3.15518083050E-01  2.09977822037E-01  4.03488102680E-01
  26  13   2    8 O     3.15518083050E-01 -2.90022177963E-01 -4.03488102680E-01

  27  14   1    8 O    -2.90107661107E-02  1.89537625713E-01 -4.22979945697E-01
  28  14   2    8 O     2.90107661107E-02 -3.10462374287E-01  4.22979945697E-01

  29  15   1    8 O    -1.39829274319E-01  1.64219175976E-01  2.92360491451E-01
  30  15   2    8 O     1.39829274319E-01 -3.35780824024E-01 -2.92360491451E-01

  31  16   1    8 O    -3.60168613727E-01 -3.35777412364E-01  2.07640381289E-01
  32  16   2    8 O     3.60168613727E-01  1.64222587636E-01 -2.07640381289E-01

  33  17   1    8 O    -1.84480008142E-01 -2.90029392703E-01  9.65105054116E-02
  34  17   2    8 O     1.84480008142E-01  2.09970607297E-01 -9.65105054116E-02

  35  18   1    8 O    -4.70987517586E-01 -3.10464089529E-01 -7.70188344577E-02
  36  18   2    8 O     4.70987517586E-01  1.89535910471E-01  7.70188344577E-02

 NUMBER OF SYMMETRY OPERATORS         :    2
 *******************************************************************************
 * GEOMETRY EDITING - INPUT COORDINATES ARE GIVEN IN ANGSTROM         
 *******************************************************************************

 GEOMETRY NOW FULLY CONSISTENT WITH THE GROUP
 INFORMATION **** NEW DEFAULT **** FINALRUN 4 FOR GEOMETRY OPTIMIZATIONS
 INFORMATION **** NEW DEFAULT **** OPTGEOM OPTIMIZES BOTH ATOMIC COORDINATES AND CELL PARAMETERS
 INFORMATION **** NEW DEFAULT **** TOL. ON ATOMIC DISP TO REDEFINE REF. GEOMETRY: 0.8 Angs
 INFORMATION **** NEW DEFAULT **** N POINTS TO REDEFINE REF. GEOMETRY: N OF OPT DEGS OF FREEDOM
 INFORMATION **** NEW DEFAULT **** TOL. ON ENERGY TO REDEFINE REF. GEOMETRY: 10**-3*(5*N. ATOMS)

 EXTERNAL STRESS APPLIED (HARTREE/BOHR^3):
 (1 HARTREE/BOHR^3 = 29421 GIGAPASCAL)
 EXTERNAL STRESS
 ORDER:   11   12    13 
          21   22    23 
          31   32    33 
  0.1019680E-03  0.0000000E+00  0.0000000E+00
  0.0000000E+00  0.1019680E-03  0.0000000E+00
  0.0000000E+00  0.0000000E+00  0.1019680E-03


 IMPORTANT INFORMATION:
 THE COORDINATE SYSTEM ADOPTED IN THE OPTIMIZATION IS NOT IN
 GENERAL HOMOGENEOUS UNITS. FOR THIS REASON THE GRADIENT AND 
 HESSIAN MATRIX IN TERMS OF THIS SYSTEM ARE GIVEN WITHOUT
 UNITS. FOR MORE DETAILS SEE THE MANUAL.

 *******************************************************************************
 COMBINED CELL/ATOM OPTIMIZATION CONTROL

 MAXIMUM GRADIENT COMPONENT   0.00045 MAXIMUM DISPLACEMENT COMPONENT     0.00180
 R.M.S. OF GRADIENT COMPONENT 0.00030 R.M.S. OF DISPLACEMENT COMPONENTS  0.00120
 THRESHOLD ON ENERGY CHANGE 0.100E-06 EXTRAPOLATING POLYNOMIAL ORDER           2
 MAXIMUM ALLOWED NUMBER OF STEPS   -1 SORTING OF ENERGY POINTS:               NO
 ANALYTICAL  GRADIENT                 HESSIAN UPDATING                      BFGS
 STEP SIZE NUMERICAL GRADIENT 0.00100
 INITIAL HESSIAN MATRIX: SCHLEGEL MODEL 2
 *******************************************************************************


 GCALCO - MAX INDICES DIRECT LATTICE VECTOR    11    25    11
 NO.OF VECTORS CREATED 6999 STARS 1824 RMAX   172.90656 BOHR

 GEOMETRY FOR WAVE FUNCTION - DIMENSIONALITY OF THE SYSTEM    3
 (NON PERIODIC DIRECTION: LATTICE PARAMETER FORMALLY SET TO 500)
 *******************************************************************************
 LATTICE PARAMETERS (ANGSTROMS AND DEGREES) - BOHR = 0.5291772083 ANGSTROM
 PRIMITIVE CELL - CENTRING CODE 1/0 VOLUME=   461.829883 - DENSITY  5.376 g/cm^3
         A              B              C           ALPHA      BETA       GAMMA 
    10.97660273     4.40250069    11.02915488    90.000000 119.944689  90.000000
 *******************************************************************************
 ATOMS IN THE ASYMMETRIC UNIT   18 - ATOMS IN THE UNIT CELL:   36
     ATOM                 X/A                 Y/B                 Z/C    
 *******************************************************************************
      1 T  12 MG   -4.926902326271E-01  4.303046691371E-01  2.541261220770E-01
      2 F  12 MG    4.926902326271E-01 -6.969533086290E-02 -2.541261220770E-01
      3 T  12 MG   -7.311716403415E-03 -6.969448394901E-02  2.458683358679E-01
      4 F  12 MG    7.311716403415E-03  4.303055160510E-01 -2.458683358679E-01
      5 T  53 I     1.662318343017E-01  4.669435750511E-01  9.149809784346E-02
      6 F  53 I    -1.662318343017E-01 -3.305642494890E-02 -9.149809784346E-02
      7 T  53 I     3.337712031255E-01 -3.305070661993E-02  4.085076206545E-01
      8 F  53 I    -3.337712031255E-01  4.669492933801E-01 -4.085076206545E-01
      9 T  53 I    -1.664571679380E-01 -3.074583333546E-02  4.268155846319E-01
     10 F  53 I     1.664571679380E-01  4.692541666645E-01 -4.268155846319E-01
     11 T  53 I    -3.335411449590E-01  4.692528452401E-01  7.318613831086E-02
     12 F  53 I     3.335411449590E-01 -3.074715475990E-02 -7.318613831086E-02
     13 T   8 O     3.292308409503E-01 -3.228869224320E-01  1.288177770800E-01
     14 F   8 O    -3.292308409503E-01  1.771130775680E-01 -1.288177770800E-01
     15 T   8 O     5.178406901128E-02 -3.125845979665E-01 -7.041206288962E-02
     16 F   8 O    -5.178406901128E-02  1.874154020335E-01  7.041206288962E-02
     17 T   8 O     1.336816761736E-01 -2.862770466305E-01  2.085270229240E-01
     18 F   8 O    -1.336816761736E-01  2.137229533695E-01 -2.085270229240E-01
     19 T   8 O     3.663254237442E-01  2.137327160868E-01  2.914819703300E-01
     20 F   8 O    -3.663254237442E-01 -2.862672839132E-01 -2.914819703300E-01
     21 T   8 O     1.707684204650E-01  1.771117212600E-01  3.711807563559E-01
     22 F   8 O    -1.707684204650E-01 -3.228882787400E-01 -3.711807563559E-01
     23 T   8 O     4.482136305666E-01  1.874303350276E-01 -4.295839140135E-01
     24 F   8 O    -4.482136305666E-01 -3.125696649724E-01  4.295839140135E-01
     25 T   8 O    -3.155180830499E-01  2.099778220373E-01  4.034881026803E-01
     26 F   8 O     3.155180830499E-01 -2.900221779627E-01 -4.034881026803E-01
     27 T   8 O    -2.901076611074E-02  1.895376257131E-01 -4.229799456968E-01
     28 F   8 O     2.901076611074E-02 -3.104623742869E-01  4.229799456968E-01
     29 T   8 O    -1.398292743193E-01  1.642191759762E-01  2.923604914505E-01
     30 F   8 O     1.398292743193E-01 -3.357808240238E-01 -2.923604914505E-01
     31 T   8 O    -3.601686137271E-01 -3.357774123640E-01  2.076403812887E-01
     32 F   8 O     3.601686137271E-01  1.642225876360E-01 -2.076403812887E-01
     33 T   8 O    -1.844800081418E-01 -2.900293927026E-01  9.651050541161E-02
     34 F   8 O     1.844800081418E-01  2.099706072974E-01 -9.651050541161E-02
     35 T   8 O    -4.709875175862E-01 -3.104640895293E-01 -7.701883445774E-02
     36 F   8 O     4.709875175862E-01  1.895359104707E-01  7.701883445774E-02

 T = ATOM BELONGING TO THE ASYMMETRIC UNIT

 ****    2 SYMMOPS - TRANSLATORS IN FRACTIONAL UNITS
 **** MATRICES AND TRANSLATORS IN THE CRYSTALLOGRAPHIC REFERENCE FRAME
   V INV                    ROTATION MATRICES                   TRANSLATORS
   1   1  1.00  0.00  0.00  0.00  1.00  0.00  0.00  0.00  1.00  0.00  0.00  0.00
   2   2 -1.00  0.00 -0.00  0.00  1.00 -0.00  0.00  0.00 -1.00  0.00  0.50  0.00

 DIRECT LATTICE VECTORS CARTESIAN COMPONENTS (ANGSTROM)
          X                    Y                    Z
   0.109766027300E+02   0.672123069940E-15   0.000000000000E+00
   0.000000000000E+00   0.440250069000E+01   0.000000000000E+00
  -0.550535421745E+01   0.675340961055E-15   0.955684740421E+01


 CARTESIAN COORDINATES - PRIMITIVE CELL
 *******************************************************************************
 *      ATOM          X(ANGSTROM)         Y(ANGSTROM)         Z(ANGSTROM)
 *******************************************************************************
    1    12 MG    4.169483459560E+00  1.894416602786E+00  2.428644570114E+00
    2    12 MG   -4.169483459560E+00 -3.068337422137E-01 -2.428644570114E+00
    3    12 MG   -1.433850086043E+00 -3.068300136747E-01  2.349726167417E+00
    4    12 MG    1.433850086043E+00  1.894420331325E+00 -2.349726167417E+00
    5    53 I     1.320931367358E+00  2.055719411354E+00  8.744333588657E-01
    6    53 I    -1.320931367358E+00 -1.455309336465E-01 -8.744333588657E-01
    7    53 I     1.414694747192E+00 -1.455057586992E-01  3.904044994053E+00
    8    53 I    -1.414694747192E+00  2.055744586301E+00 -3.904044994053E+00
    9    53 I     1.328449034508E+00 -1.353585524740E-01 -5.477835992146E+00
   10    53 I    -1.328449034508E+00  2.065891792526E+00  5.477835992146E+00
   11    53 I    -4.064064257533E+00  2.065885974954E+00  6.994287559405E-01
   12    53 I     4.064064257533E+00 -1.353643700460E-01 -6.994287559405E-01
   13     8 O     2.904648655245E+00 -1.421509898799E+00  1.231091838504E+00
   14     8 O    -2.904648655245E+00  7.797404462011E-01 -1.231091838504E+00
   15     8 O     9.560565006685E-01 -1.376153908231E+00 -6.729173404520E-01
   16     8 O    -9.560565006685E-01  8.250964367691E-01  6.729173404520E-01
   17     8 O     3.193555265309E-01 -1.260334895322E+00  1.992860937740E+00
   18     8 O    -3.193555265309E-01  9.409154496781E-01 -1.992860937740E+00
   19     8 O     2.416297151672E+00  9.409584300477E-01  2.785648711523E+00
   20     8 O    -2.416297151672E+00 -1.260291914952E+00 -2.785648711523E+00
   21     8 O    -1.690244321668E-01  7.797344750542E-01  3.547317847874E+00
   22     8 O     1.690244321668E-01 -1.421515869946E+00 -3.547317847874E+00
   23     8 O    -3.691728156336E+00  8.251621792859E-01 -4.105467913532E+00
   24     8 O     3.691728156336E+00 -1.376088165714E+00  4.105467913532E+00
   25     8 O    -1.793073621011E-01  9.244275064039E-01 -5.700773177482E+00
   26     8 O     1.793073621011E-01 -1.276822838596E+00  5.700773177482E+00
   27     8 O     2.010214773449E+00  8.344395279829E-01 -4.042354796067E+00
   28     8 O    -2.010214773449E+00 -1.366810817017E+00  4.042354796067E+00
   29     8 O    -3.144398458850E+00  7.229750355465E-01  2.794044603813E+00
   30     8 O     3.144398458850E+00 -1.478275309454E+00 -2.794044603813E+00
   31     8 O    -5.096561637538E+00 -1.478260289619E+00  1.984387438929E+00
   32     8 O     5.096561637538E+00  7.229900553811E-01 -1.984387438929E+00
   33     8 O    -2.556288278996E+00 -1.276854601493E+00  9.223361731223E-01
   34     8 O     2.556288278996E+00  9.243957435065E-01 -9.223361731223E-01
   35     8 O    -4.745826906228E+00 -1.366818368373E+00 -7.360572481630E-01
   36     8 O     4.745826906228E+00  8.344319766270E-01  7.360572481630E-01

 *******************************************************************************
 STARTING BASIS SET HANDLING 
 *******************************************************************************

 Loading internal basis set: POB-TZVP-REV2       

 Please cite in your publication:
 D. Vilela Oliveira, M. F. Peintinger, J. Laun, and T. Bredow, J. Comput. Chem., 40 (2019)                                                                                                                                                                       
 J. Laun, and T. Bredow, J. Comput. Chem., 42 (2021)                                                                                                                                                                                                             
 J. Laun, and T. Bredow, J. Comput. Chem., 43 (2022)                                                                                                                                                                                                             

 *******************************************************************************
 *** PSEUDOPOTENTIAL INFORMATION ***
 *******************************************************************************

 ATOMIC NUMBER  53, NUCLEAR CHARGE 25.000,                      PSEUDOPOTENTIAL
   TYPE       EXPONENT      COEFF.    N      EXPONENT      COEFF.    N
  P0 TMS    40.0333760   49.9896490   0    17.3005760  281.0065560   0
             8.8517200   61.4167390   0
  P1 TMS    15.7201410   67.4162390   0    15.2082220  134.8076960   0
             8.2941860   14.5665480   0     7.7539490   28.9684220   0
  P2 TMS    13.8177510   35.5387560   0    13.5878050   53.3397590   0
             6.9476300    9.7164660   0     6.9600990   14.9775000   0
  P3 TMS    18.5229500  -20.1766180   0    18.2510350  -26.0880770   0
             7.5579010   -0.2204340   0     7.5974040   -0.2216460   0

 *******************************************************************************
 LOCAL ATOMIC FUNCTIONS BASIS SET
 *******************************************************************************
   ATOM   X(AU)   Y(AU)   Z(AU)  N. TYPE  EXPONENT  S COEF   P COEF   D/F/G COEF
 *******************************************************************************
   1 MG   7.879   3.580   4.589
                                  1 S  
                                         3.144E+04 6.091E-04 0.000E+00 0.000E+00
                                         4.716E+03 4.707E-03 0.000E+00 0.000E+00
                                         1.073E+03 2.414E-02 0.000E+00 0.000E+00
                                         3.036E+02 9.363E-02 0.000E+00 0.000E+00
                                         9.863E+01 2.665E-01 0.000E+00 0.000E+00
                                         3.494E+01 4.789E-01 0.000E+00 0.000E+00
                                         1.286E+01 3.370E-01 0.000E+00 0.000E+00
                                  2 S  
                                         6.488E+01 1.918E-02 0.000E+00 0.000E+00
                                         1.973E+01 9.091E-02 0.000E+00 0.000E+00
                                         2.895E+00-3.956E-01 0.000E+00 0.000E+00
                                  3 S  
                                         1.196E+00 1.683E+00 0.000E+00 0.000E+00
                                         5.433E-01 5.214E-01 0.000E+00 0.000E+00
                                  4 S  
                                         8.347E-01 1.000E+00 0.000E+00 0.000E+00
                                  5 S  
                                         1.451E-01 1.000E+00 0.000E+00 0.000E+00
                           6-     8 P  
                                         1.799E+02 0.000E+00 5.380E-03 0.000E+00
                                         4.212E+01 0.000E+00 3.932E-02 0.000E+00
                                         1.312E+01 0.000E+00 1.574E-01 0.000E+00
                                         4.626E+00 0.000E+00 3.592E-01 0.000E+00
                                         1.670E+00 0.000E+00 4.553E-01 0.000E+00
                           9-    11 P  
                                         5.663E-01 0.000E+00 1.000E+00 0.000E+00
                          12-    14 P  
                                         1.881E-01 0.000E+00 1.000E+00 0.000E+00
                          15-    19 D  
                                         2.936E-01 0.000E+00 0.000E+00 1.000E+00
   2 MG  -7.879  -0.580  -4.589
   3 MG  -2.710  -0.580   4.440
   4 MG   2.710   3.580  -4.440
   5 I    2.496   3.885   1.652
                                 77 S  
                                         5.900E+03 2.419E-04 0.000E+00 0.000E+00
                                         8.985E+02 1.547E-03 0.000E+00 0.000E+00
                                         2.004E+02 4.284E-03 0.000E+00 0.000E+00
                                         3.142E+01-3.942E-02 0.000E+00 0.000E+00
                                         1.565E+01 9.609E-01 0.000E+00 0.000E+00
                                 78 S  
                                         1.182E+01 7.596E-01 0.000E+00 0.000E+00
                                         6.461E+00 4.250E-01 0.000E+00 0.000E+00
                                 79 S  
                                         2.221E+00 7.013E-01 0.000E+00 0.000E+00
                                         1.042E+00 2.987E-01 0.000E+00 0.000E+00
                                 80 S  
                                         2.321E-01 1.000E+00 0.000E+00 0.000E+00
                          81-    83 P  
                                         1.973E+02 0.000E+00 7.395E-04 0.000E+00
                                         2.006E+01 0.000E+00 6.617E-02 0.000E+00
                                         9.763E+00 0.000E+00-2.855E-01 0.000E+00
                          84-    86 P  
                                         1.298E+01 0.000E+00-4.910E-02 0.000E+00
                                         3.620E+00 0.000E+00 3.891E-01 0.000E+00
                                         2.023E+00 0.000E+00 6.561E-01 0.000E+00
                                         1.037E+00 0.000E+00 3.180E-01 0.000E+00
                          87-    89 P  
                                         3.996E-01 0.000E+00 1.000E+00 0.000E+00
                          90-    92 P  
                                         1.222E-01 0.000E+00 1.000E+00 0.000E+00
                          93-    97 D  
                                         1.191E+02 0.000E+00 0.000E+00 8.260E-04
                                         3.340E+01 0.000E+00 0.000E+00 6.838E-03
                                         1.781E+01 0.000E+00 0.000E+00-1.031E-02
                                         4.899E+00 0.000E+00 0.000E+00 2.267E-01
                                         2.452E+00 0.000E+00 0.000E+00 4.418E-01
                                         1.182E+00 0.000E+00 0.000E+00 3.678E-01
                          98-   102 D  
                                         1.004E+00 0.000E+00 0.000E+00 1.000E+00
                         103-   107 D  
                                         5.278E-01 0.000E+00 0.000E+00 1.000E+00
                         108-   112 D  
                                         2.010E-01 0.000E+00 0.000E+00 1.000E+00
   6 I   -2.496  -0.275  -1.652
   7 I    2.673  -0.275   7.378
   8 I   -2.673   3.885  -7.378
   9 I    2.510  -0.256 -10.352
  10 I   -2.510   3.904  10.352
  11 I   -7.680   3.904   1.322
  12 I    7.680  -0.256  -1.322
  13 O    5.489  -2.686   2.326
                                365 S  
                                         2.703E+04 2.173E-04 0.000E+00 0.000E+00
                                         4.052E+03 1.684E-03 0.000E+00 0.000E+00
                                         9.223E+02 8.740E-03 0.000E+00 0.000E+00
                                         2.612E+02 3.524E-02 0.000E+00 0.000E+00
                                         8.535E+01 1.115E-01 0.000E+00 0.000E+00
                                         3.104E+01 2.559E-01 0.000E+00 0.000E+00
                                366 S  
                                         1.226E+01 3.977E-01 0.000E+00 0.000E+00
                                         4.999E+00 2.463E-01 0.000E+00 0.000E+00
                                367 S  
                                         1.099E+00 1.000E+00 0.000E+00 0.000E+00
                                368 S  
                                         3.566E-01 1.000E+00 0.000E+00 0.000E+00
                         369-   371 P  
                                         6.327E+01 0.000E+00 6.069E-03 0.000E+00
                                         1.463E+01 0.000E+00 4.191E-02 0.000E+00
                                         4.450E+00 0.000E+00 1.615E-01 0.000E+00
                                         1.528E+00 0.000E+00 3.571E-01 0.000E+00
                         372-   374 P  
                                         5.490E-01 0.000E+00 1.000E+00 0.000E+00
                         375-   377 P  
                                         1.859E-01 0.000E+00 1.000E+00 0.000E+00
                         378-   382 D  
                                         4.535E-01 0.000E+00 0.000E+00 1.000E+00
  14 O   -5.489   1.473  -2.326
  15 O    1.807  -2.601  -1.272
  16 O   -1.807   1.559   1.272
  17 O    0.603  -2.382   3.766
  18 O   -0.603   1.778  -3.766
  19 O    4.566   1.778   5.264
  20 O   -4.566  -2.382  -5.264
  21 O   -0.319   1.473   6.703
  22 O    0.319  -2.686  -6.703
  23 O   -6.976   1.559  -7.758
  24 O    6.976  -2.600   7.758
  25 O   -0.339   1.747 -10.773
  26 O    0.339  -2.413  10.773
  27 O    3.799   1.577  -7.639
  28 O   -3.799  -2.583   7.639
  29 O   -5.942   1.366   5.280
  30 O    5.942  -2.794  -5.280
  31 O   -9.631  -2.794   3.750
  32 O    9.631   1.366  -3.750
  33 O   -4.831  -2.413   1.743
  34 O    4.831   1.747  -1.743
  35 O   -8.968  -2.583  -1.391
  36 O    8.968   1.577   1.391

 *******************************************************************************
 FINISHED BASIS SET HANDLING 
 *******************************************************************************

 INFORMATION **** SET_MPP **** PCRYSTAL CALCULATION
 INFORMATION **** READM2 **** NEW DEFAULT: FOCK/KS MATRIX MIXING SET TO 30 %
 INFORMATION **** READM2 **** NEW DEFAULT: FULL DIRECT SCF MODE
 INFORMATION **** READM2 **** NEW DEFAULT: COULOMB BIPOLAR BUFFER SET TO 32 Mb
 INFORMATION **** READM2 **** NEW DEFAULT: EXCHANGE BIPOLAR BUFFER SET TO 32 Mb

 *******************************************************************************
 NEW DEFAULT: DFT INTEGRATION GRID INCREASED TO XLGRID
 NEW DEFAULT: DIIS ACCELERATOR ACTIVE
 USE KEYWORD NODIIS TO TURN IT OFF
 *******************************************************************************

 INFORMATION **** DFTD3_INPUT **** PERFORM LATEST DISPERSION CORRECTION DFT-D3(BJ) WITH AUTOMATIC PARAMETER SETUP
 PLEASE CITE:
 (1) DFT-D3 Reference
  S. Grimme, J. Antony, S. Ehrlich, and H. Krieg, J. Chem. Phys. 132 (2010), 154104
 (2) BJ-Damping Reference
  S. Grimme, S. Ehrlich, and L. Goerigk, J. Comput. Chem. 32 (2011), 1456-1465
 (3) General DFT-D Review
  S. Grimme, A. Hansen, J. G. Brandenburg, and C. Bannwarth,
  Chem. Rev. 116 (2016), 5105-5154

 INFORMATION **** TOLINTEG **** COULOMB AND EXCHANGE SERIES TOLERANCES MODIFIED
 INFORMATION **** TOLDEE **** SCF TOL ON TOTAL ENERGY SET TO           9
 *******************************************************************************
 N. OF ATOMS PER CELL        36  COULOMB OVERLAP TOL         (T1) 10**   -9
 NUMBER OF SHELLS           324  COULOMB PENETRATION TOL     (T2) 10**   -9
 NUMBER OF AO               796  EXCHANGE OVERLAP TOL        (T3) 10**   -9
 N. OF ELECTRONS PER CELL   440  EXCHANGE PSEUDO OVP (F(G))  (T4) 10**   -9
 CORE ELECTRONS PER CELL     88  EXCHANGE PSEUDO OVP (P(G))  (T5) 10**  -27
 N. OF SYMMETRY OPERATORS     2  POLE ORDER IN MONO ZONE                  4
 *******************************************************************************
 TYPE OF CALCULATION :  RESTRICTED CLOSED SHELL
 KOHN-SHAM HAMILTONIAN

 (EXCHANGE)[CORRELATION] FUNCTIONAL:(PERDEW-BURKE-ERNZERHOF)[PERDEW-BURKE-ERNZERHOF]


 HYBRID EXCHANGE - PERCENTAGE OF FOCK EXCHANGE    25.0000
 CORE  PSEUDO POTENTIAL         TOL. ON PSEUDO              (TP) 10**- 6

 CAPPA:IS1  6;IS2  6;IS3  6; K PTS MONK NET  80; SYMMOPS:K SPACE   4;G SPACE   2

 *******************************************************************************
 MAX NUMBER OF SCF CYCLES      50  CONVERGENCE ON DELTAP        10**-19
 WEIGHT OF F(I) IN F(I+1)      30% CONVERGENCE ON ENERGY        10**- 9
 SHRINK. FACT.(MONKH.)    6  6  6  NUMBER OF K POINTS IN THE IBZ     80
 SHRINKING FACTOR(GILAT NET)    6  NUMBER OF K POINTS(GILAT NET)     80
 *******************************************************************************
 *** K POINTS COORDINATES (OBLIQUE COORDINATES IN UNITS OF IS =  6)
   1-R(  0  0  0)   2-C(  1  0  0)   3-C(  2  0  0)   4-R(  3  0  0)
   5-C(  0  1  0)   6-C(  1  1  0)   7-C(  2  1  0)   8-C(  3  1  0)
   9-C(  0  2  0)  10-C(  1  2  0)  11-C(  2  2  0)  12-C(  3  2  0)
  13-R(  0  3  0)  14-C(  1  3  0)  15-C(  2  3  0)  16-R(  3  3  0)
  17-C(  0  0  1)  18-C(  1  0  1)  19-C(  2  0  1)  20-C(  3  0  1)
  21-C(  4  0  1)  22-C(  5  0  1)  23-C(  0  1  1)  24-C(  1  1  1)
  25-C(  2  1  1)  26-C(  3  1  1)  27-C(  4  1  1)  28-C(  5  1  1)
  29-C(  0  2  1)  30-C(  1  2  1)  31-C(  2  2  1)  32-C(  3  2  1)
  33-C(  4  2  1)  34-C(  5  2  1)  35-C(  0  3  1)  36-C(  1  3  1)
  37-C(  2  3  1)  38-C(  3  3  1)  39-C(  4  3  1)  40-C(  5  3  1)
  41-C(  0  0  2)  42-C(  1  0  2)  43-C(  2  0  2)  44-C(  3  0  2)
  45-C(  4  0  2)  46-C(  5  0  2)  47-C(  0  1  2)  48-C(  1  1  2)
  49-C(  2  1  2)  50-C(  3  1  2)  51-C(  4  1  2)  52-C(  5  1  2)
  53-C(  0  2  2)  54-C(  1  2  2)  55-C(  2  2  2)  56-C(  3  2  2)
  57-C(  4  2  2)  58-C(  5  2  2)  59-C(  0  3  2)  60-C(  1  3  2)
  61-C(  2  3  2)  62-C(  3  3  2)  63-C(  4  3  2)  64-C(  5  3  2)
  65-R(  0  0  3)  66-C(  1  0  3)  67-C(  2  0  3)  68-R(  3  0  3)
  69-C(  0  1  3)  70-C(  1  1  3)  71-C(  2  1  3)  72-C(  3  1  3)
  73-C(  0  2  3)  74-C(  1  2  3)  75-C(  2  2  3)  76-C(  3  2  3)
  77-R(  0  3  3)  78-C(  1  3  3)  79-C(  2  3  3)  80-R(  3  3  3)

 DIRECT LATTICE VECTORS COMPON. (A.U.)     RECIP. LATTICE VECTORS COMPON. (A.U.) 
        X            Y            Z              X            Y            Z
   20.7427730    0.0000000    0.0000000      0.3029096   -0.0000000    0.1744953
    0.0000000    8.3195206    0.0000000     -0.0000000    0.7552341   -0.0000000
  -10.4036117    0.0000000   18.0598243      0.0000000    0.0000000    0.3479095

 DISK SPACE FOR EIGENVECTORS (FTN 10)    96309632 REALS

 SYMMETRY ADAPTION OF THE BLOCH FUNCTIONS ENABLED
 TTTTTTTTTTTTTTTTTTTTTTTTTTTTTT gordsh1     TELAPSE        3.72 TCPU        2.22

 MATRIX SIZE: P(G) 4510872, F(G)  427404, P(G) IRR 1138469, F(G) IRR  216020
 MAX G-VECTOR INDEX FOR 1- AND 2-ELECTRON INTEGRALS 159

 TTTTTTTTTTTTTTTTTTTTTTTTTTTTTT INPUT       TELAPSE        3.75 TCPU        2.25

 NEIGHBORS OF THE NON-EQUIVALENT ATOMS

 N = NUMBER OF NEIGHBORS AT DISTANCE R
    ATOM  N     R/ANG      R/AU   NEIGHBORS (ATOM LABELS AND CELL INDICES)
   1 MG   1     2.0274     3.8312   19 O    0 0 0
   1 MG   1     2.0455     3.8654   31 O    1 1 0
   1 MG   1     2.0529     3.8795   13 O    0 1 0
   1 MG   1     2.0587     3.8904   25 O    1 0 1
   1 MG   1     2.0786     3.9280   36 O    0 0 0
   1 MG   1     2.0788     3.9284   24 O    0 1 0

   3 MG   1     2.0274     3.8312   17 O    0 0 0
   3 MG   1     2.0455     3.8654   29 O    0 0 0
   3 MG   1     2.0530     3.8795   21 O    0 0 0
   3 MG   1     2.0587     3.8904   33 O    0 0 0
   3 MG   1     2.0786     3.9281   28 O    0 0 0
   3 MG   1     2.0788     3.9283   16 O    0 0 0

   5 I    1     1.8532     3.5021   17 O    0 1 0
   5 I    1     1.8627     3.5199   15 O    0 1 0
   5 I    1     1.8686     3.5311   13 O    0 1 0
   5 I    1     2.4565     4.6421   34 O    0 0 0
   5 I    1     2.4689     4.6655   19 O    0 0 0
   5 I    1     2.5961     4.9059   16 O    0 0 0

   7 I    1     1.8532     3.5021   19 O    0 0 0
   7 I    1     1.8627     3.5199   23 O    1 0 1
   7 I    1     1.8686     3.5311   21 O    0 0 0
   7 I    1     2.4565     4.6421   26 O    0 0 0
   7 I    1     2.4689     4.6655   17 O    0 0 0
   7 I    1     2.5961     4.9059   24 O    0 0 0

   9 I    1     1.8564     3.5081   25 O    0 0 0
   9 I    1     1.8585     3.5120   29 O    0 0-1
   9 I    1     1.8617     3.5181   27 O    0 0 0
   9 I    1     2.4925     4.7101   28 O    0 0-1
   9 I    1     2.5933     4.9007   22 O    0 0 0
   9 I    1     2.6527     5.0128   31 O    0 0-1

  11 I    1     1.8564     3.5081   33 O    0 1 0
  11 I    1     1.8585     3.5120   31 O    0 1 0
  11 I    1     1.8617     3.5181   35 O    0 1 0
  11 I    1     2.4925     4.7101   36 O   -1 0 0
  11 I    1     2.5933     4.9007   14 O    0 0 0
  11 I    1     2.6527     5.0128   29 O    0 0 0

  13 O    1     1.8686     3.5311    5 I    0-1 0
  13 O    1     2.0529     3.8795    1 MG   0-1 0
  13 O    1     2.5933     4.9007   12 I    0 0 0
  13 O    1     2.6109     4.9339   19 O    0-1 0
  13 O    1     2.7000     5.1023   17 O    0 0 0
  13 O    1     2.7248     5.1491   15 O    0 0 0

  15 O    1     1.8627     3.5199    5 I    0-1 0
  15 O    1     2.0788     3.9283    4 MG   0-1 0
  15 O    1     2.5961     4.9059    6 I    0 0 0
  15 O    1     2.6535     5.0144   34 O    0-1 0
  15 O    1     2.7248     5.1491   13 O    0 0 0
  15 O    1     2.7432     5.1839   17 O    0 0 0

  17 O    1     1.8532     3.5021    5 I    0-1 0
  17 O    1     2.0274     3.8312    3 MG   0 0 0
  17 O    1     2.4689     4.6655    7 I    0 0 0
  17 O    1     2.6109     4.9339   21 O    0 0 0
  17 O    1     2.7000     5.1023   13 O    0 0 0
  17 O    1     2.7432     5.1839   15 O    0 0 0

  19 O    1     1.8532     3.5021    7 I    0 0 0
  19 O    1     2.0274     3.8312    1 MG   0 0 0
  19 O    1     2.4689     4.6655    5 I    0 0 0
  19 O    1     2.6109     4.9339   13 O    0 1 0
  19 O    1     2.7000     5.1023   21 O    0 0 0
  19 O    1     2.7432     5.1839   23 O    1 0 1

  21 O    1     1.8686     3.5311    7 I    0 0 0
  21 O    1     2.0530     3.8795    3 MG   0 0 0
  21 O    1     2.5933     4.9007   10 I    0 0 0
  21 O    1     2.6109     4.9339   17 O    0 0 0
  21 O    1     2.7000     5.1023   19 O    0 0 0
  21 O    1     2.7248     5.1491   23 O    1 0 1

  23 O    1     1.8627     3.5199    7 I   -1 0-1
  23 O    1     2.0788     3.9284    2 MG   0 0 0
  23 O    1     2.5961     4.9059    8 I    0 0 0
  23 O    1     2.6535     5.0144   26 O   -1 0-1
  23 O    1     2.7248     5.1491   21 O   -1 0-1
  23 O    1     2.7432     5.1839   19 O   -1 0-1

  25 O    1     1.8564     3.5081    9 I    0 0 0
  25 O    1     2.0587     3.8904    1 MG  -1 0-1
  25 O    1     2.4565     4.6421    8 I    0 0 0
  25 O    1     2.6535     5.0144   24 O   -1 1-1
  25 O    1     2.7482     5.1933   27 O    0 0 0
  25 O    1     2.7607     5.2170   29 O    0 0-1

  27 O    1     1.8617     3.5181    9 I    0 0 0
  27 O    1     2.0786     3.9281    4 MG   0 0 0
  27 O    1     2.4925     4.7101   10 I    0 0-1
  27 O    1     2.6855     5.0748   30 O    0 1 0
  27 O    1     2.7452     5.1877   29 O    0 0-1
  27 O    1     2.7482     5.1933   25 O    0 0 0

  29 O    1     1.8585     3.5120    9 I    0 0 1
  29 O    1     2.0455     3.8654    3 MG   0 0 0
  29 O    1     2.6527     5.0128   11 I    0 0 0
  29 O    1     2.6855     5.0748   28 O    0 0 0
  29 O    1     2.7452     5.1877   27 O    0 0 1
  29 O    1     2.7607     5.2170   25 O    0 0 1

  31 O    1     1.8585     3.5120   11 I    0-1 0
  31 O    1     2.0455     3.8654    1 MG  -1-1 0
  31 O    1     2.6527     5.0128    9 I    0 0 1
  31 O    1     2.6855     5.0749   36 O   -1-1 0
  31 O    1     2.7452     5.1877   35 O    0 0 0
  31 O    1     2.7607     5.2170   33 O    0 0 0

  33 O    1     1.8564     3.5081   11 I    0-1 0
  33 O    1     2.0587     3.8904    3 MG   0 0 0
  33 O    1     2.4565     4.6421    6 I    0 0 0
  33 O    1     2.6535     5.0144   16 O    0 0 0
  33 O    1     2.7482     5.1933   35 O    0 0 0
  33 O    1     2.7607     5.2170   31 O    0 0 0

  35 O    1     1.8617     3.5181   11 I    0-1 0
  35 O    1     2.0786     3.9280    2 MG   0 0 0
  35 O    1     2.4925     4.7101   12 I   -1 0 0
  35 O    1     2.6855     5.0749   32 O   -1 0 0
  35 O    1     2.7452     5.1877   31 O    0 0 0
  35 O    1     2.7482     5.1933   33 O    0 0 0


 SYMMETRY ALLOWED ELASTIC DISTORTION 1
  0.5773503  0.0000000  0.0000000
  0.0000000  0.5773503  0.0000000
  0.0000000  0.0000000  0.5773503

 SYMMETRY ALLOWED ELASTIC DISTORTION 2
  0.8164966  0.0000000  0.0000000
  0.0000000 -0.4082483  0.0000000
  0.0000000  0.0000000 -0.4082483

 SYMMETRY ALLOWED ELASTIC DISTORTION 3
  0.0000000  0.0000000  0.0000000
  0.0000000  0.7071068  0.0000000
  0.0000000  0.0000000 -0.7071068

 SYMMETRY ALLOWED ELASTIC DISTORTION 4
 -0.0000000  0.0000000  0.7071068
  0.0000000 -0.0000000  0.0000000
  0.7071068  0.0000000  0.0000000

 SYMMETRY ALLOWED INTERNAL DEGREE(S) OF FREEDOM:  53
 TTTTTTTTTTTTTTTTTTTTTTTTTTTTTT SYMM        TELAPSE        3.79 TCPU        2.29
 TTTTTTTTTTTTTTTTTTTTTTTTTTTTTT INT_SCREEN  TELAPSE        3.82 TCPU        2.31

 *******************************************************************************
 *                             OPTIMIZATION STARTS                             *
 *******************************************************************************
 RECLASIFICATION OF INDICES FOR INTEGRAL CALC ACCORDING TO DIFFERENT CRITERIA:
           FIXDELTE                  FIXDELTX              FIXDELTN
          0.10000000               0.80000000                 57
 DEFAULT MAX NUM OF POINTS  114
 *******************************************************************************

 *******************************************************************************
 COORDINATE AND CELL OPTIMIZATION - POINT    1
 WARNING **** EXCBUF **** EXCH. BIPO BUFFER TOO SMALL - TO AVOID I/O SET EXCHSIZE =     7859232

 DFT PARAMETERS

     ATOM       ELECTRONS   NET CHARGE   R(ANGSTROM)
   1  12  MG     12.0000      0.0000     1.60000000
   5  53  I      25.0000      0.0000     1.33000000
  13   8  O       8.0000      0.0000     0.74000000

 SIZE OF GRID=    2770441
 TTTTTTTTTTTTTTTTTTTTTTTTTTTTTT MAKE_GRID2  TELAPSE       20.72 TCPU       19.11
 BECKE WEIGHT FUNCTION
 RADSAFE =     2.00
 TOLERANCES - DENSITY:10**- 6; POTENTIAL:10**- 9; GRID WGT:10**-14

 RADIAL INTEGRATION  - INTERVALS (POINTS,UPPER LIMIT):            1(300,  4.0*R)

 ANGULAR INTEGRATION - INTERVALS (ACCURACY LEVEL [N. POINTS] UPPER LIMIT):
  1(  6[ 146]   0.2)  2( 11[ 302]   0.5)  3( 14[ 590]   0.9)  4( 18[1454]   3.5)
  5( 14[ 590]9999.0)
 TTTTTTTTTTTTTTTTTTTTTTTTTTTTTT INT_CALC    TELAPSE       20.75 TCPU       19.14

 *******************************************************************************
 Mg(IO3)2 P21                                                                    
 CRYSTAL - SCF - TYPE OF CALCULATION :  RESTRICTED CLOSED SHELL
 *******************************************************************************

 CAPPA:IS1  6;IS2  6;IS3  6; K PTS MONK NET  80; SYMMOPS:K SPACE   4;G SPACE   2

 TTTTTTTTTTTTTTTTTTTTTTTTTTTTTT SDIK        TELAPSE       21.73 TCPU       20.12

 AAAAAAAAAAAAAAAAAAAAAAAAAAAAAAAAAAAAAAAAAAAAAAAAAAAAAAAAAAAAAAAAAAAAAAAAAAAAAAA
         ATOMIC WAVEFUNCTION(S)


 NUCLEAR CHARGE 12.0  SYMMETRY SPECIES            S    P
 N. ELECTRONS   12.0  NUMBER OF PRIMITIVE GTOS   14    7
                      NUMBER OF CONTRACTED GTOS   5    3
                      NUMBER OF CLOSED SHELLS     3    1
                      OPEN SHELL OCCUPATION       0    0

  ZNUC  SCFIT    TOTAL HF ENERGY   KINETIC ENERGY   VIRIAL THEOREM             ACCURACY
  12.0     8    -1.994903813E+02  2.003482110E+02 -1.995718306E+00  4.2E-06

 NUCLEAR CHARGE 25.0  SYMMETRY SPECIES            S    P    D
 N. ELECTRONS   25.0  NUMBER OF PRIMITIVE GTOS   10    9    9
                      NUMBER OF CONTRACTED GTOS   4    4    4
                      NUMBER OF CLOSED SHELLS     2    1    1
                      OPEN SHELL OCCUPATION       0    5    0

  ZNUC  SCFIT    TOTAL HF ENERGY   KINETIC ENERGY   VIRIAL THEOREM             ACCURACY
  25.0    10    -2.945672222E+02  1.114753143E+02 -3.642443522E+00  1.4E-06

 NUCLEAR CHARGE  8.0  SYMMETRY SPECIES            S    P
 N. ELECTRONS    8.0  NUMBER OF PRIMITIVE GTOS   10    6
                      NUMBER OF CONTRACTED GTOS   4    3
                      NUMBER OF CLOSED SHELLS     2    0
                      OPEN SHELL OCCUPATION       0    4

  ZNUC  SCFIT    TOTAL HF ENERGY   KINETIC ENERGY   VIRIAL THEOREM             ACCURACY
   8.0    13    -7.480300557E+01  7.484348361E+01 -1.999459164E+00  4.9E-06

 AAAAAAAAAAAAAAAAAAAAAAAAAAAAAAAAAAAAAAAAAAAAAAAAAAAAAAAAAAAAAAAAAAAAAAAAAAAAAAA

 CHARGE NORMALIZATION FACTOR   1.00000000
 TOTAL ATOMIC CHARGES:
  12.0000000  12.0000000  12.0000000  12.0000000  25.0000000  25.0000000
  25.0000000  25.0000000  25.0000000  25.0000000  25.0000000  25.0000000
   8.0000000   8.0000000   8.0000000   8.0000000   8.0000000   8.0000000
   8.0000000   8.0000000   8.0000000   8.0000000   8.0000000   8.0000000
   8.0000000   8.0000000   8.0000000   8.0000000   8.0000000   8.0000000
   8.0000000   8.0000000   8.0000000   8.0000000   8.0000000   8.0000000
 TTTTTTTTTTTTTTTTTTTTTTTTTTTTTT MOQGAD      TELAPSE       21.79 TCPU       20.17
 TTTTTTTTTTTTTTTTTTTTTTTTTTTTTT SHELLXN     TELAPSE       52.73 TCPU       50.80
 TTTTTTTTTTTTTTTTTTTTTTTTTTTTTT MONMO3      TELAPSE       53.09 TCPU       51.15
 NUMERICALLY INTEGRATED DENSITY    439.9999873422
 TTTTTTTTTTTTTTTTTTTTTTTTTTTTTT NUMDFT      TELAPSE       57.16 TCPU       55.22
 CYC   0 ETOT(AU) -4.974104856871E+03 DETOT -4.97E+03 tst  0.00E+00 PX  1.00E+00
 TTTTTTTTTTTTTTTTTTTTTTTTTTTTTT DIIS        TELAPSE       57.22 TCPU       55.28
 TTTTTTTTTTTTTTTTTTTTTTTTTTTTTT FDIK        TELAPSE       66.90 TCPU       64.95
 INSULATING STATE
 TOP OF VALENCE BANDS -    BAND    220; K   68; EIG -2.9317246E-01 AU
 TOP OF VALENCE BANDS -    BAND    220; K    1; EIG -3.0044494E-01 AU
 BOTTOM OF VIRTUAL BANDS - BAND    221; K   43; EIG -1.1219641E-01 AU
 INDIRECT ENERGY BAND GAP:   4.9246 eV
 BOTTOM OF VIRTUAL BANDS - BAND    221; K    1; EIG -1.0628921E-01 AU
 TTTTTTTTTTTTTTTTTTTTTTTTTTTTTT PDIG        TELAPSE       67.42 TCPU       65.47
 CHARGE NORMALIZATION FACTOR   1.00000000
 TOTAL ATOMIC CHARGES:
  10.6568188  10.6568188  10.6568159  10.6568159  22.2430646  22.2430646
  22.2430680  22.2430680  22.2254022  22.2254022  22.2254035  22.2254035
   9.1916197   9.1916197   9.1953446   9.1953446   9.0880728   9.0880728
   9.0880685   9.0880685   9.1916232   9.1916232   9.1953575   9.1953575
   9.0989169   9.0989169   9.1144900   9.1144900   9.1862674   9.1862674
   9.1862685   9.1862685   9.0989136   9.0989136   9.1144843   9.1144843
 TTTTTTTTTTTTTTTTTTTTTTTTTTTTTT MOQGAD      TELAPSE       67.44 TCPU       65.48
 TTTTTTTTTTTTTTTTTTTTTTTTTTTTTT SHELLXN     TELAPSE       99.54 TCPU       97.57
 TTTTTTTTTTTTTTTTTTTTTTTTTTTTTT MONMO3      TELAPSE       99.90 TCPU       97.93
 NUMERICALLY INTEGRATED DENSITY    439.9999939767
 TTTTTTTTTTTTTTTTTTTTTTTTTTTTTT NUMDFT      TELAPSE      103.95 TCPU      101.97
 CYC   1 ETOT(AU) -4.966805082602E+03 DETOT  7.30E+00 tst  0.00E+00 PX  1.00E+00
 TTTTTTTTTTTTTTTTTTTTTTTTTTTTTT DIIS        TELAPSE      104.02 TCPU      102.03
 DIIS TEST: 0.11111E+02 AT SCF   CYCLE   1 - MIX   30 %
 TTTTTTTTTTTTTTTTTTTTTTTTTTTTTT FDIK        TELAPSE      105.94 TCPU      103.96
 INSULATING STATE
 TOP OF VALENCE BANDS -    BAND    220; K   43; EIG -1.2929806E-01 AU
 TOP OF VALENCE BANDS -    BAND    220; K    1; EIG -1.3926443E-01 AU
 BOTTOM OF VIRTUAL BANDS - BAND    221; K   43; EIG -2.2799860E-02 AU
 DIRECT ENERGY BAND GAP:   2.8980 eV
 BOTTOM OF VIRTUAL BANDS - BAND    221; K    1; EIG -1.5473216E-02 AU
 TTTTTTTTTTTTTTTTTTTTTTTTTTTTTT PDIG        TELAPSE      106.47 TCPU      104.48
 CHARGE NORMALIZATION FACTOR   1.00000000
 TOTAL ATOMIC CHARGES:
  10.7837659  10.7837659  10.7837572  10.7837572  24.1110347  24.1110347
  24.1110633  24.1110633  24.0381640  24.0381640  24.0381571  24.0381571
   8.5521839   8.5521839   8.5260513   8.5260513   8.4838392   8.4838392
   8.4837605   8.4837605   8.5521705   8.5521705   8.5260296   8.5260296
   8.4854997   8.4854997   8.5047088   8.5047088   8.5148028   8.5148028
   8.5148290   8.5148290   8.4854462   8.4854462   8.5047363   8.5047363
 TTTTTTTTTTTTTTTTTTTTTTTTTTTTTT MOQGAD      TELAPSE      106.48 TCPU      104.49
 TTTTTTTTTTTTTTTTTTTTTTTTTTTTTT SHELLXN     TELAPSE      138.45 TCPU      136.43
 TTTTTTTTTTTTTTTTTTTTTTTTTTTTTT MONMO3      TELAPSE      138.81 TCPU      136.78
 NUMERICALLY INTEGRATED DENSITY    439.9999904462
 TTTTTTTTTTTTTTTTTTTTTTTTTTTTTT NUMDFT      TELAPSE      142.73 TCPU      140.69
 CYC   2 ETOT(AU) -4.967083827165E+03 DETOT -2.79E-01 tst  1.83E-02 PX  6.46E-01
 TTTTTTTTTTTTTTTTTTTTTTTTTTTTTT DIIS        TELAPSE      142.79 TCPU      140.75
 DIIS TEST: 0.97407E+01 AT SCF   CYCLE   2 - DIIS ACTIVE - HISTORY:     2 CYCLES
 TTTTTTTTTTTTTTTTTTTTTTTTTTTTTT FDIK        TELAPSE      144.63 TCPU      142.54
 INSULATING STATE
 TOP OF VALENCE BANDS -    BAND    220; K   43; EIG -1.9966076E-01 AU
 TOP OF VALENCE BANDS -    BAND    220; K    1; EIG -2.0541511E-01 AU
 BOTTOM OF VIRTUAL BANDS - BAND    221; K   43; EIG -2.6813825E-02 AU
 DIRECT ENERGY BAND GAP:   4.7034 eV
 BOTTOM OF VIRTUAL BANDS - BAND    221; K    1; EIG -2.0765172E-02 AU
 TTTTTTTTTTTTTTTTTTTTTTTTTTTTTT PDIG        TELAPSE      145.15 TCPU      143.06
 CHARGE NORMALIZATION FACTOR   1.00000000
 TOTAL ATOMIC CHARGES:
  10.7875776  10.7875776  10.7875631  10.7875631  23.1171614  23.1171614
  23.1171740  23.1171740  23.1417337  23.1417337  23.1417023  23.1417023
   8.8925118   8.8925118   8.9103167   8.9103167   8.7219803   8.7219803
   8.7219312   8.7219312   8.8925256   8.8925256   8.9103320   8.9103320
   8.7515738   8.7515738   8.7753098   8.7753098   8.9018384   8.9018384
   8.9018297   8.9018297   8.7516295   8.7516295   8.7753093   8.7753093
 TTTTTTTTTTTTTTTTTTTTTTTTTTTTTT MOQGAD      TELAPSE      145.16 TCPU      143.07
 TTTTTTTTTTTTTTTTTTTTTTTTTTTTTT SHELLXN     TELAPSE      177.15 TCPU      174.99
 TTTTTTTTTTTTTTTTTTTTTTTTTTTTTT MONMO3      TELAPSE      177.51 TCPU      175.34
 NUMERICALLY INTEGRATED DENSITY    439.9999944222
 TTTTTTTTTTTTTTTTTTTTTTTTTTTTTT NUMDFT      TELAPSE      181.62 TCPU      179.45
 CYC   3 ETOT(AU) -4.968780394051E+03 DETOT -1.70E+00 tst  4.26E-03 PX  1.58E-01
 TTTTTTTTTTTTTTTTTTTTTTTTTTTTTT DIIS        TELAPSE      181.70 TCPU      179.51
 DIIS TEST: 0.85090E-01 AT SCF   CYCLE   3 - DIIS ACTIVE - HISTORY:     3 CYCLES
 TTTTTTTTTTTTTTTTTTTTTTTTTTTTTT FDIK        TELAPSE      183.40 TCPU      181.20
 INSULATING STATE
 TOP OF VALENCE BANDS -    BAND    220; K   13; EIG -2.0222115E-01 AU
 TOP OF VALENCE BANDS -    BAND    220; K    1; EIG -2.0742040E-01 AU
 BOTTOM OF VIRTUAL BANDS - BAND    221; K   43; EIG -2.2688262E-02 AU
 INDIRECT ENERGY BAND GAP:   4.8853 eV
 BOTTOM OF VIRTUAL BANDS - BAND    221; K    1; EIG -1.6338815E-02 AU
 TTTTTTTTTTTTTTTTTTTTTTTTTTTTTT PDIG        TELAPSE      183.92 TCPU      181.72
 CHARGE NORMALIZATION FACTOR   1.00000000
 TOTAL ATOMIC CHARGES:
  10.7630714  10.7630714  10.7630662  10.7630662  23.1635633  23.1635633
  23.1635508  23.1635508  23.1202863  23.1202863  23.1202727  23.1202727
   8.8716608   8.8716608   8.8488127   8.8488127   8.7985679   8.7985679
   8.7985616   8.7985616   8.8716672   8.8716672   8.8488332   8.8488332
   8.7937386   8.7937386   8.8104703   8.8104703   8.8298366   8.8298366
   8.8298394   8.8298394   8.7937343   8.7937343   8.8104667   8.8104667
 TTTTTTTTTTTTTTTTTTTTTTTTTTTTTT MOQGAD      TELAPSE      183.93 TCPU      181.73
 TTTTTTTTTTTTTTTTTTTTTTTTTTTTTT SHELLXN     TELAPSE      216.17 TCPU      213.95
 TTTTTTTTTTTTTTTTTTTTTTTTTTTTTT MONMO3      TELAPSE      216.52 TCPU      214.30
 NUMERICALLY INTEGRATED DENSITY    439.9999939874
 TTTTTTTTTTTTTTTTTTTTTTTTTTTTTT NUMDFT      TELAPSE      220.63 TCPU      218.41
 CYC   4 ETOT(AU) -4.968782854508E+03 DETOT -2.46E-03 tst  1.22E-04 PX  2.30E-02
 TTTTTTTTTTTTTTTTTTTTTTTTTTTTTT DIIS        TELAPSE      220.71 TCPU      218.47
 DIIS TEST: 0.79069E-01 AT SCF   CYCLE   4 - DIIS ACTIVE - HISTORY:     4 CYCLES
 TTTTTTTTTTTTTTTTTTTTTTTTTTTTTT FDIK        TELAPSE      222.29 TCPU      220.04
 INSULATING STATE
 TOP OF VALENCE BANDS -    BAND    220; K   43; EIG -2.0010610E-01 AU
 TOP OF VALENCE BANDS -    BAND    220; K    1; EIG -2.0606297E-01 AU
 BOTTOM OF VIRTUAL BANDS - BAND    221; K   43; EIG -2.0941446E-02 AU
 DIRECT ENERGY BAND GAP:   4.8753 eV
 BOTTOM OF VIRTUAL BANDS - BAND    221; K    1; EIG -1.4747979E-02 AU
 TTTTTTTTTTTTTTTTTTTTTTTTTTTTTT PDIG        TELAPSE      222.81 TCPU      220.56
 CHARGE NORMALIZATION FACTOR   1.00000000
 TOTAL ATOMIC CHARGES:
  10.7573839  10.7573839  10.7573795  10.7573795  23.1579031  23.1579031
  23.1579032  23.1579032  23.1351891  23.1351891  23.1351797  23.1351797
   8.8791161   8.8791161   8.8826195   8.8826195   8.7544966   8.7544966
   8.7544946   8.7544946   8.8791196   8.8791196   8.8826340   8.8826340
   8.7719459   8.7719459   8.7912810   8.7912810   8.8700655   8.8700655
   8.8700642   8.8700642   8.7719418   8.7719418   8.7912826   8.7912826
 TTTTTTTTTTTTTTTTTTTTTTTTTTTTTT MOQGAD      TELAPSE      222.82 TCPU      220.57
 TTTTTTTTTTTTTTTTTTTTTTTTTTTTTT SHELLXN     TELAPSE      254.79 TCPU      252.53
 TTTTTTTTTTTTTTTTTTTTTTTTTTTTTT MONMO3      TELAPSE      255.15 TCPU      252.89
 NUMERICALLY INTEGRATED DENSITY    439.9999941161
 TTTTTTTTTTTTTTTTTTTTTTTTTTTTTT NUMDFT      TELAPSE      259.18 TCPU      256.92
 CYC   5 ETOT(AU) -4.968796093519E+03 DETOT -1.32E-02 tst  4.42E-05 PX  9.97E-03
 TTTTTTTTTTTTTTTTTTTTTTTTTTTTTT DIIS        TELAPSE      259.26 TCPU      256.98
 DIIS TEST: 0.48399E-02 AT SCF   CYCLE   5 - DIIS ACTIVE - HISTORY:     5 CYCLES
 TTTTTTTTTTTTTTTTTTTTTTTTTTTTTT FDIK        TELAPSE      261.34 TCPU      259.06
 INSULATING STATE
 TOP OF VALENCE BANDS -    BAND    220; K   43; EIG -1.9873233E-01 AU
 TOP OF VALENCE BANDS -    BAND    220; K    1; EIG -2.0470294E-01 AU
 BOTTOM OF VIRTUAL BANDS - BAND    221; K   43; EIG -2.0087790E-02 AU
 DIRECT ENERGY BAND GAP:   4.8612 eV
 BOTTOM OF VIRTUAL BANDS - BAND    221; K    1; EIG -1.4007765E-02 AU
 TTTTTTTTTTTTTTTTTTTTTTTTTTTTTT PDIG        TELAPSE      261.86 TCPU      259.58
 CHARGE NORMALIZATION FACTOR   1.00000000
 TOTAL ATOMIC CHARGES:
  10.7608776  10.7608776  10.7608741  10.7608741  23.1467161  23.1467161
  23.1467079  23.1467079  23.1384403  23.1384403  23.1384441  23.1384441
   8.8839556   8.8839556   8.8773291   8.8773291   8.7610247   8.7610247
   8.7610255   8.7610255   8.8839612   8.8839612   8.8773336   8.8773336
   8.7711950   8.7711950   8.7945936   8.7945936   8.8658677   8.8658677
   8.8658640   8.8658640   8.7712106   8.7712106   8.7945794   8.7945794
 TTTTTTTTTTTTTTTTTTTTTTTTTTTTTT MOQGAD      TELAPSE      261.87 TCPU      259.59
 TTTTTTTTTTTTTTTTTTTTTTTTTTTTTT SHELLXN     TELAPSE      294.17 TCPU      291.88
 TTTTTTTTTTTTTTTTTTTTTTTTTTTTTT MONMO3      TELAPSE      294.53 TCPU      292.23
 NUMERICALLY INTEGRATED DENSITY    439.9999941491
 TTTTTTTTTTTTTTTTTTTTTTTTTTTTTT NUMDFT      TELAPSE      298.62 TCPU      296.32
 CYC   6 ETOT(AU) -4.968796391859E+03 DETOT -2.98E-04 tst  1.26E-06 PX  3.13E-03
 TTTTTTTTTTTTTTTTTTTTTTTTTTTTTT DIIS        TELAPSE      298.69 TCPU      296.38
 DIIS TEST: 0.78369E-03 AT SCF   CYCLE   6 - DIIS ACTIVE - HISTORY:     6 CYCLES
 TTTTTTTTTTTTTTTTTTTTTTTTTTTTTT FDIK        TELAPSE      300.24 TCPU      297.93
 INSULATING STATE
 TOP OF VALENCE BANDS -    BAND    220; K   43; EIG -2.0015486E-01 AU
 TOP OF VALENCE BANDS -    BAND    220; K    1; EIG -2.0594299E-01 AU
 BOTTOM OF VIRTUAL BANDS - BAND    221; K   43; EIG -1.9925640E-02 AU
 DIRECT ENERGY BAND GAP:   4.9043 eV
 BOTTOM OF VIRTUAL BANDS - BAND    221; K    1; EIG -1.3750616E-02 AU
 TTTTTTTTTTTTTTTTTTTTTTTTTTTTTT PDIG        TELAPSE      300.76 TCPU      298.45
 CHARGE NORMALIZATION FACTOR   1.00000000
 TOTAL ATOMIC CHARGES:
  10.7608964  10.7608964  10.7608937  10.7608937  23.1545960  23.1545960
  23.1545907  23.1545907  23.1297180  23.1297180  23.1297187  23.1297187
   8.8752034   8.8752034   8.8839187   8.8839187   8.7582928   8.7582928
   8.7582921   8.7582921   8.8752078   8.8752078   8.8839251   8.8839251
   8.7779985   8.7779985   8.7915162   8.7915162   8.8678581   8.8678581
   8.8678561   8.8678561   8.7780110   8.7780110   8.7915066   8.7915066
 TTTTTTTTTTTTTTTTTTTTTTTTTTTTTT MOQGAD      TELAPSE      300.78 TCPU      298.46
 TTTTTTTTTTTTTTTTTTTTTTTTTTTTTT SHELLXN     TELAPSE      332.90 TCPU      330.56
 TTTTTTTTTTTTTTTTTTTTTTTTTTTTTT MONMO3      TELAPSE      333.42 TCPU      331.07
 NUMERICALLY INTEGRATED DENSITY    439.9999941294
 TTTTTTTTTTTTTTTTTTTTTTTTTTTTTT NUMDFT      TELAPSE      337.35 TCPU      334.99
 CYC   7 ETOT(AU) -4.968796265769E+03 DETOT  1.26E-04 tst  1.81E-06 PX  2.50E-03
 TTTTTTTTTTTTTTTTTTTTTTTTTTTTTT DIIS        TELAPSE      337.41 TCPU      335.06
 DIIS TEST: 0.15112E-02 AT SCF   CYCLE   7 - DIIS ACTIVE - HISTORY:     7 CYCLES
 TTTTTTTTTTTTTTTTTTTTTTTTTTTTTT FDIK        TELAPSE      338.99 TCPU      336.63
 INSULATING STATE
 TOP OF VALENCE BANDS -    BAND    220; K   43; EIG -1.9946501E-01 AU
 TOP OF VALENCE BANDS -    BAND    220; K    1; EIG -2.0540613E-01 AU
 BOTTOM OF VIRTUAL BANDS - BAND    221; K   43; EIG -2.0000370E-02 AU
 DIRECT ENERGY BAND GAP:   4.8835 eV
 BOTTOM OF VIRTUAL BANDS - BAND    221; K    1; EIG -1.3838311E-02 AU
 TTTTTTTTTTTTTTTTTTTTTTTTTTTTTT PDIG        TELAPSE      339.51 TCPU      337.15
 CHARGE NORMALIZATION FACTOR   1.00000000
 TOTAL ATOMIC CHARGES:
  10.7604414  10.7604414  10.7604372  10.7604372  23.1516898  23.1516898
  23.1516901  23.1516901  23.1332190  23.1332190  23.1332218  23.1332218
   8.8817080   8.8817080   8.8792507   8.8792507   8.7594365   8.7594365
   8.7594328   8.7594328   8.8817112   8.8817112   8.8792555   8.8792555
   8.7725126   8.7725126   8.7944093   8.7944093   8.8673300   8.8673300
   8.8673303   8.8673303   8.7725154   8.7725154   8.7944085   8.7944085
 TTTTTTTTTTTTTTTTTTTTTTTTTTTTTT MOQGAD      TELAPSE      339.52 TCPU      337.16
 TTTTTTTTTTTTTTTTTTTTTTTTTTTTTT SHELLXN     TELAPSE      371.53 TCPU      369.09
 TTTTTTTTTTTTTTTTTTTTTTTTTTTTTT MONMO3      TELAPSE      371.89 TCPU      369.45
 NUMERICALLY INTEGRATED DENSITY    439.9999941466
 TTTTTTTTTTTTTTTTTTTTTTTTTTTTTT NUMDFT      TELAPSE      375.99 TCPU      373.54
 CYC   8 ETOT(AU) -4.968796493858E+03 DETOT -2.28E-04 tst  9.76E-07 PX  1.19E-03
 TTTTTTTTTTTTTTTTTTTTTTTTTTTTTT DIIS        TELAPSE      376.06 TCPU      373.61
 DIIS TEST: 0.19060E-03 AT SCF   CYCLE   8 - DIIS ACTIVE - HISTORY:     8 CYCLES
 TTTTTTTTTTTTTTTTTTTTTTTTTTTTTT FDIK        TELAPSE      377.90 TCPU      375.44
 INSULATING STATE
 TOP OF VALENCE BANDS -    BAND    220; K   43; EIG -1.9933306E-01 AU
 TOP OF VALENCE BANDS -    BAND    220; K    1; EIG -2.0524908E-01 AU
 BOTTOM OF VIRTUAL BANDS - BAND    221; K   43; EIG -1.9983811E-02 AU
 DIRECT ENERGY BAND GAP:   4.8803 eV
 BOTTOM OF VIRTUAL BANDS - BAND    221; K    1; EIG -1.3844266E-02 AU
 TTTTTTTTTTTTTTTTTTTTTTTTTTTTTT PDIG        TELAPSE      378.42 TCPU      375.96
 CHARGE NORMALIZATION FACTOR   1.00000000
 TOTAL ATOMIC CHARGES:
  10.7605148  10.7605148  10.7605122  10.7605122  23.1497759  23.1497759
  23.1497751  23.1497751  23.1348808  23.1348808  23.1348910  23.1348910
   8.8807694   8.8807694   8.8800850   8.8800850   8.7598644   8.7598644
   8.7598586   8.7598586   8.8807734   8.8807734   8.8800900   8.8800900
   8.7739721   8.7739721   8.7932539   8.7932539   8.8668818   8.8668818
   8.8668788   8.8668788   8.7739722   8.7739722   8.7932507   8.7932507
 TTTTTTTTTTTTTTTTTTTTTTTTTTTTTT MOQGAD      TELAPSE      378.43 TCPU      375.97
 TTTTTTTTTTTTTTTTTTTTTTTTTTTTTT SHELLXN     TELAPSE      410.79 TCPU      408.32
 TTTTTTTTTTTTTTTTTTTTTTTTTTTTTT MONMO3      TELAPSE      411.15 TCPU      408.67
 NUMERICALLY INTEGRATED DENSITY    439.9999941417
 TTTTTTTTTTTTTTTTTTTTTTTTTTTTTT NUMDFT      TELAPSE      415.25 TCPU      412.77
 CYC   9 ETOT(AU) -4.968796502884E+03 DETOT -9.03E-06 tst  3.43E-08 PX  1.19E-03
 TTTTTTTTTTTTTTTTTTTTTTTTTTTTTT DIIS        TELAPSE      415.33 TCPU      412.84
 DIIS TEST: 0.30255E-04 AT SCF   CYCLE   9 - DIIS ACTIVE - HISTORY:     9 CYCLES
 TTTTTTTTTTTTTTTTTTTTTTTTTTTTTT FDIK        TELAPSE      416.98 TCPU      414.49
 INSULATING STATE
 TOP OF VALENCE BANDS -    BAND    220; K   43; EIG -1.9937072E-01 AU
 TOP OF VALENCE BANDS -    BAND    220; K    1; EIG -2.0530841E-01 AU
 BOTTOM OF VIRTUAL BANDS - BAND    221; K   43; EIG -1.9936856E-02 AU
 DIRECT ENERGY BAND GAP:   4.8826 eV
 BOTTOM OF VIRTUAL BANDS - BAND    221; K    1; EIG -1.3794997E-02 AU
 TTTTTTTTTTTTTTTTTTTTTTTTTTTTTT PDIG        TELAPSE      417.50 TCPU      415.01
 CHARGE NORMALIZATION FACTOR   1.00000000
 TOTAL ATOMIC CHARGES:
  10.7605927  10.7605927  10.7605901  10.7605901  23.1508462  23.1508462
  23.1508476  23.1508476  23.1336306  23.1336306  23.1336422  23.1336422
   8.8809200   8.8809200   8.8798430   8.8798430   8.7597122   8.7597122
   8.7597061   8.7597061   8.8809234   8.8809234   8.8798477   8.8798477
   8.7729812   8.7729812   8.7943152   8.7943152   8.8671564   8.8671564
   8.8671537   8.8671537   8.7729826   8.7729826   8.7943091   8.7943091
 TTTTTTTTTTTTTTTTTTTTTTTTTTTTTT MOQGAD      TELAPSE      417.51 TCPU      415.02
 TTTTTTTTTTTTTTTTTTTTTTTTTTTTTT SHELLXN     TELAPSE      449.52 TCPU      447.02
 TTTTTTTTTTTTTTTTTTTTTTTTTTTTTT MONMO3      TELAPSE      449.88 TCPU      447.37
 NUMERICALLY INTEGRATED DENSITY    439.9999941471
 TTTTTTTTTTTTTTTTTTTTTTTTTTTTTT NUMDFT      TELAPSE      453.87 TCPU      451.36
 CYC  10 ETOT(AU) -4.968796504288E+03 DETOT -1.40E-06 tst  1.21E-08 PX  6.51E-04
 TTTTTTTTTTTTTTTTTTTTTTTTTTTTTT DIIS        TELAPSE      453.94 TCPU      451.43
 DIIS TEST: 0.13438E-04 AT SCF   CYCLE  10 - DIIS ACTIVE - HISTORY:    10 CYCLES
 TTTTTTTTTTTTTTTTTTTTTTTTTTTTTT FDIK        TELAPSE      455.63 TCPU      453.12
 INSULATING STATE
 TOP OF VALENCE BANDS -    BAND    220; K   43; EIG -1.9937562E-01 AU
 TOP OF VALENCE BANDS -    BAND    220; K    1; EIG -2.0529218E-01 AU
 BOTTOM OF VIRTUAL BANDS - BAND    221; K   43; EIG -1.9961473E-02 AU
 DIRECT ENERGY BAND GAP:   4.8821 eV
 BOTTOM OF VIRTUAL BANDS - BAND    221; K    1; EIG -1.3804899E-02 AU
 TTTTTTTTTTTTTTTTTTTTTTTTTTTTTT PDIG        TELAPSE      456.16 TCPU      453.64
 CHARGE NORMALIZATION FACTOR   1.00000000
 TOTAL ATOMIC CHARGES:
  10.7605025  10.7605025  10.7604982  10.7604982  23.1504403  23.1504403
  23.1504428  23.1504428  23.1341990  23.1341990  23.1342091  23.1342091
   8.8813253   8.8813253   8.8796628   8.8796628   8.7596673   8.7596673
   8.7596607   8.7596607   8.8813287   8.8813287   8.8796688   8.8796688
   8.7737727   8.7737727   8.7933606   8.7933606   8.8670671   8.8670671
   8.8670658   8.8670658   8.7737711   8.7737711   8.7933572   8.7933572
 TTTTTTTTTTTTTTTTTTTTTTTTTTTTTT MOQGAD      TELAPSE      456.17 TCPU      453.65
 TTTTTTTTTTTTTTTTTTTTTTTTTTTTTT SHELLXN     TELAPSE      488.17 TCPU      485.58
 TTTTTTTTTTTTTTTTTTTTTTTTTTTTTT MONMO3      TELAPSE      488.53 TCPU      485.94
 NUMERICALLY INTEGRATED DENSITY    439.9999941414
 TTTTTTTTTTTTTTTTTTTTTTTTTTTTTT NUMDFT      TELAPSE      492.66 TCPU      490.06
 CYC  11 ETOT(AU) -4.968796505270E+03 DETOT -9.82E-07 tst  7.48E-09 PX  2.88E-04
 TTTTTTTTTTTTTTTTTTTTTTTTTTTTTT DIIS        TELAPSE      492.74 TCPU      490.13
 DIIS TEST: 0.85934E-05 AT SCF   CYCLE  11 - DIIS ACTIVE - HISTORY:    11 CYCLES
 TTTTTTTTTTTTTTTTTTTTTTTTTTTTTT FDIK        TELAPSE      494.39 TCPU      491.78
 INSULATING STATE
 TOP OF VALENCE BANDS -    BAND    220; K   43; EIG -1.9935824E-01 AU
 TOP OF VALENCE BANDS -    BAND    220; K    1; EIG -2.0528794E-01 AU
 BOTTOM OF VIRTUAL BANDS - BAND    221; K   43; EIG -1.9961761E-02 AU
 DIRECT ENERGY BAND GAP:   4.8816 eV
 BOTTOM OF VIRTUAL BANDS - BAND    221; K    1; EIG -1.3821651E-02 AU
 TTTTTTTTTTTTTTTTTTTTTTTTTTTTTT PDIG        TELAPSE      494.91 TCPU      492.30
 CHARGE NORMALIZATION FACTOR   1.00000000
 TOTAL ATOMIC CHARGES:
  10.7605123  10.7605123  10.7605076  10.7605076  23.1503548  23.1503548
  23.1503589  23.1503589  23.1342607  23.1342607  23.1342695  23.1342695
   8.8808658   8.8808658   8.8799627   8.8799627   8.7597967   8.7597967
   8.7597896   8.7597896   8.8808691   8.8808691   8.8799690   8.8799690
   8.7733407   8.7733407   8.7938844   8.7938844   8.8670195   8.8670195
   8.8670186   8.8670186   8.7733383   8.7733383   8.7938819   8.7938819
 TTTTTTTTTTTTTTTTTTTTTTTTTTTTTT MOQGAD      TELAPSE      494.93 TCPU      492.31
 TTTTTTTTTTTTTTTTTTTTTTTTTTTTTT SHELLXN     TELAPSE      526.94 TCPU      524.32
 TTTTTTTTTTTTTTTTTTTTTTTTTTTTTT MONMO3      TELAPSE      527.30 TCPU      524.67
 NUMERICALLY INTEGRATED DENSITY    439.9999941454
 TTTTTTTTTTTTTTTTTTTTTTTTTTTTTT NUMDFT      TELAPSE      531.29 TCPU      528.66
 CYC  12 ETOT(AU) -4.968796506060E+03 DETOT -7.90E-07 tst  3.61E-09 PX  1.35E-04
 TTTTTTTTTTTTTTTTTTTTTTTTTTTTTT DIIS        TELAPSE      531.37 TCPU      528.73
 DIIS TEST: 0.17805E-05 AT SCF   CYCLE  12 - DIIS ACTIVE - HISTORY:    12 CYCLES
 TTTTTTTTTTTTTTTTTTTTTTTTTTTTTT FDIK        TELAPSE      533.21 TCPU      530.57
 INSULATING STATE
 TOP OF VALENCE BANDS -    BAND    220; K   43; EIG -1.9935807E-01 AU
 TOP OF VALENCE BANDS -    BAND    220; K    1; EIG -2.0528370E-01 AU
 BOTTOM OF VIRTUAL BANDS - BAND    221; K   43; EIG -1.9948952E-02 AU
 DIRECT ENERGY BAND GAP:   4.8820 eV
 BOTTOM OF VIRTUAL BANDS - BAND    221; K    1; EIG -1.3801991E-02 AU
 TTTTTTTTTTTTTTTTTTTTTTTTTTTTTT PDIG        TELAPSE      533.73 TCPU      531.09
 CHARGE NORMALIZATION FACTOR   1.00000000
 TOTAL ATOMIC CHARGES:
  10.7605488  10.7605488  10.7605445  10.7605445  23.1504999  23.1504999
  23.1505037  23.1505037  23.1340518  23.1340518  23.1340602  23.1340602
   8.8810562   8.8810562   8.8797981   8.8797981   8.7597139   8.7597139
   8.7597068   8.7597068   8.8810615   8.8810615   8.8798021   8.8798021
   8.7734716   8.7734716   8.7937686   8.7937686   8.8670895   8.8670895
   8.8670869   8.8670869   8.7734742   8.7734742   8.7937617   8.7937617
 TTTTTTTTTTTTTTTTTTTTTTTTTTTTTT MOQGAD      TELAPSE      533.75 TCPU      531.10
 TTTTTTTTTTTTTTTTTTTTTTTTTTTTTT SHELLXN     TELAPSE      565.78 TCPU      563.11
 TTTTTTTTTTTTTTTTTTTTTTTTTTTTTT MONMO3      TELAPSE      566.14 TCPU      563.47
 NUMERICALLY INTEGRATED DENSITY    439.9999941438
 TTTTTTTTTTTTTTTTTTTTTTTTTTTTTT NUMDFT      TELAPSE      570.23 TCPU      567.55
 CYC  13 ETOT(AU) -4.968796506240E+03 DETOT -1.80E-07 tst  6.66E-10 PX  1.47E-04
 TTTTTTTTTTTTTTTTTTTTTTTTTTTTTT DIIS        TELAPSE      570.31 TCPU      567.62
 DIIS TEST: 0.38949E-06 AT SCF   CYCLE  13 - DIIS ACTIVE - HISTORY:    13 CYCLES
 TTTTTTTTTTTTTTTTTTTTTTTTTTTTTT FDIK        TELAPSE      572.30 TCPU      569.60
 INSULATING STATE
 TOP OF VALENCE BANDS -    BAND    220; K   43; EIG -1.9936685E-01 AU
 TOP OF VALENCE BANDS -    BAND    220; K    1; EIG -2.0529376E-01 AU
 BOTTOM OF VIRTUAL BANDS - BAND    221; K   43; EIG -1.9956493E-02 AU
 DIRECT ENERGY BAND GAP:   4.8820 eV
 BOTTOM OF VIRTUAL BANDS - BAND    221; K    1; EIG -1.3811018E-02 AU
 TTTTTTTTTTTTTTTTTTTTTTTTTTTTTT PDIG        TELAPSE      572.82 TCPU      570.12
 CHARGE NORMALIZATION FACTOR   1.00000000
 TOTAL ATOMIC CHARGES:
  10.7605238  10.7605238  10.7605188  10.7605188  23.1504175  23.1504175
  23.1504224  23.1504224  23.1341851  23.1341851  23.1341938  23.1341938
   8.8810205   8.8810205   8.8798770   8.8798770   8.7597577   8.7597577
   8.7597525   8.7597525   8.8810207   8.8810207   8.8798847   8.8798847
   8.7734172   8.7734172   8.7937650   8.7937650   8.8670329   8.8670329
   8.8670338   8.8670338   8.7734140   8.7734140   8.7937626   8.7937626
 TTTTTTTTTTTTTTTTTTTTTTTTTTTTTT MOQGAD      TELAPSE      572.83 TCPU      570.13
 TTTTTTTTTTTTTTTTTTTTTTTTTTTTTT SHELLXN     TELAPSE      604.87 TCPU      602.16
 TTTTTTTTTTTTTTTTTTTTTTTTTTTTTT MONMO3      TELAPSE      605.23 TCPU      602.52
 NUMERICALLY INTEGRATED DENSITY    439.9999941446
 TTTTTTTTTTTTTTTTTTTTTTTTTTTTTT NUMDFT      TELAPSE      609.35 TCPU      606.64
 CYC  14 ETOT(AU) -4.968796506252E+03 DETOT -1.20E-08 tst  8.02E-11 PX  7.46E-05
 TTTTTTTTTTTTTTTTTTTTTTTTTTTTTT DIIS        TELAPSE      609.47 TCPU      606.75
 DIIS TEST: 0.60755E-07 AT SCF   CYCLE  14 - DIIS ACTIVE - HISTORY:    14 CYCLES
 TTTTTTTTTTTTTTTTTTTTTTTTTTTTTT FDIK        TELAPSE      611.05 TCPU      608.32
 INSULATING STATE
 TOP OF VALENCE BANDS -    BAND    220; K   43; EIG -1.9935568E-01 AU
 TOP OF VALENCE BANDS -    BAND    220; K    1; EIG -2.0528198E-01 AU
 BOTTOM OF VIRTUAL BANDS - BAND    221; K   43; EIG -1.9954983E-02 AU
 DIRECT ENERGY BAND GAP:   4.8817 eV
 BOTTOM OF VIRTUAL BANDS - BAND    221; K    1; EIG -1.3809947E-02 AU
 TTTTTTTTTTTTTTTTTTTTTTTTTTTTTT PDIG        TELAPSE      611.58 TCPU      608.85
 CHARGE NORMALIZATION FACTOR   1.00000000
 TOTAL ATOMIC CHARGES:
  10.7605322  10.7605322  10.7605283  10.7605283  23.1504803  23.1504803
  23.1504837  23.1504837  23.1341028  23.1341028  23.1341115  23.1341115
   8.8809949   8.8809949   8.8798204   8.8798204   8.7597264   8.7597264
   8.7597168   8.7597168   8.8810042   8.8810042   8.8798196   8.8798196
   8.7734542   8.7734542   8.7938018   8.7938018   8.8670875   8.8670875
   8.8670832   8.8670832   8.7734623   8.7734623   8.7937900   8.7937900
 TTTTTTTTTTTTTTTTTTTTTTTTTTTTTT MOQGAD      TELAPSE      611.59 TCPU      608.86
 TTTTTTTTTTTTTTTTTTTTTTTTTTTTTT SHELLXN     TELAPSE      643.61 TCPU      640.86
 TTTTTTTTTTTTTTTTTTTTTTTTTTTTTT MONMO3      TELAPSE      643.96 TCPU      641.21
 NUMERICALLY INTEGRATED DENSITY    439.9999941439
 TTTTTTTTTTTTTTTTTTTTTTTTTTTTTT NUMDFT      TELAPSE      648.10 TCPU      645.34
 CYC  15 ETOT(AU) -4.968796506284E+03 DETOT -3.16E-08 tst  5.98E-11 PX  1.80E-05
 TTTTTTTTTTTTTTTTTTTTTTTTTTTTTT DIIS        TELAPSE      648.18 TCPU      645.42
 DIIS TEST: 0.70819E-07 AT SCF   CYCLE  15 - DIIS ACTIVE - HISTORY:    15 CYCLES
 TTTTTTTTTTTTTTTTTTTTTTTTTTTTTT FDIK        TELAPSE      649.89 TCPU      647.12
 INSULATING STATE
 TOP OF VALENCE BANDS -    BAND    220; K   43; EIG -1.9936136E-01 AU
 TOP OF VALENCE BANDS -    BAND    220; K    1; EIG -2.0528793E-01 AU
 BOTTOM OF VIRTUAL BANDS - BAND    221; K   43; EIG -1.9954087E-02 AU
 DIRECT ENERGY BAND GAP:   4.8819 eV
 BOTTOM OF VIRTUAL BANDS - BAND    221; K    1; EIG -1.3808615E-02 AU
 TTTTTTTTTTTTTTTTTTTTTTTTTTTTTT PDIG        TELAPSE      650.41 TCPU      647.64
 CHARGE NORMALIZATION FACTOR   1.00000000
 TOTAL ATOMIC CHARGES:
  10.7605335  10.7605335  10.7605284  10.7605284  23.1504471  23.1504471
  23.1504519  23.1504519  23.1341349  23.1341349  23.1341437  23.1341437
   8.8810199   8.8810199   8.8798483   8.8798483   8.7597386   8.7597386
   8.7597335   8.7597335   8.8810201   8.8810201   8.8798559   8.8798559
   8.7734398   8.7734398   8.7937788   8.7937788   8.8670560   8.8670560
   8.8670566   8.8670566   8.7734376   8.7734376   8.7937754   8.7937754
 TTTTTTTTTTTTTTTTTTTTTTTTTTTTTT MOQGAD      TELAPSE      650.43 TCPU      647.65
 TTTTTTTTTTTTTTTTTTTTTTTTTTTTTT SHELLXN     TELAPSE      682.44 TCPU      679.66
 TTTTTTTTTTTTTTTTTTTTTTTTTTTTTT MONMO3      TELAPSE      682.79 TCPU      680.01
 NUMERICALLY INTEGRATED DENSITY    439.9999941443
 TTTTTTTTTTTTTTTTTTTTTTTTTTTTTT NUMDFT      TELAPSE      686.74 TCPU      683.95
 CYC  16 ETOT(AU) -4.968796506267E+03 DETOT  1.72E-08 tst  2.51E-11 PX  7.11E-06
 TTTTTTTTTTTTTTTTTTTTTTTTTTTTTT DIIS        TELAPSE      686.89 TCPU      684.10
 DIIS TEST: 0.14005E-07 AT SCF   CYCLE  16 - DIIS ACTIVE - HISTORY:    16 CYCLES
 TTTTTTTTTTTTTTTTTTTTTTTTTTTTTT FDIK        TELAPSE      689.27 TCPU      686.48
 INSULATING STATE
 TOP OF VALENCE BANDS -    BAND    220; K   43; EIG -1.9936175E-01 AU
 TOP OF VALENCE BANDS -    BAND    220; K    1; EIG -2.0528831E-01 AU
 BOTTOM OF VIRTUAL BANDS - BAND    221; K   43; EIG -1.9954811E-02 AU
 DIRECT ENERGY BAND GAP:   4.8819 eV
 BOTTOM OF VIRTUAL BANDS - BAND    221; K    1; EIG -1.3809277E-02 AU
 TTTTTTTTTTTTTTTTTTTTTTTTTTTTTT PDIG        TELAPSE      689.79 TCPU      687.00
 CHARGE NORMALIZATION FACTOR   1.00000000
 TOTAL ATOMIC CHARGES:
  10.7605300  10.7605300  10.7605262  10.7605262  23.1504490  23.1504490
  23.1504522  23.1504522  23.1341385  23.1341385  23.1341473  23.1341473
   8.8810116   8.8810116   8.8798500   8.8798500   8.7597459   8.7597459
   8.7597359   8.7597359   8.8810215   8.8810215   8.8798489   8.8798489
   8.7734318   8.7734318   8.7937804   8.7937804   8.8670633   8.8670633
   8.8670592   8.8670592   8.7734393   8.7734393   8.7937690   8.7937690
 TTTTTTTTTTTTTTTTTTTTTTTTTTTTTT MOQGAD      TELAPSE      689.80 TCPU      687.01
 TTTTTTTTTTTTTTTTTTTTTTTTTTTTTT SHELLXN     TELAPSE      722.09 TCPU      719.28
 TTTTTTTTTTTTTTTTTTTTTTTTTTTTTT MONMO3      TELAPSE      722.44 TCPU      719.64
 NUMERICALLY INTEGRATED DENSITY    439.9999941443
 TTTTTTTTTTTTTTTTTTTTTTTTTTTTTT NUMDFT      TELAPSE      726.42 TCPU      723.61
 CYC  17 ETOT(AU) -4.968796506271E+03 DETOT -4.25E-09 tst  1.30E-12 PX  5.54E-06
 TTTTTTTTTTTTTTTTTTTTTTTTTTTTTT DIIS        TELAPSE      726.56 TCPU      723.75
 DIIS TEST: 0.16816E-08 AT SCF   CYCLE  17 - DIIS ACTIVE - HISTORY:    17 CYCLES
 TTTTTTTTTTTTTTTTTTTTTTTTTTTTTT FDIK        TELAPSE      728.31 TCPU      725.49
 INSULATING STATE
 TOP OF VALENCE BANDS -    BAND    220; K   43; EIG -1.9936131E-01 AU
 TOP OF VALENCE BANDS -    BAND    220; K    1; EIG -2.0528790E-01 AU
 BOTTOM OF VIRTUAL BANDS - BAND    221; K   43; EIG -1.9954698E-02 AU
 DIRECT ENERGY BAND GAP:   4.8819 eV
 BOTTOM OF VIRTUAL BANDS - BAND    221; K    1; EIG -1.3809378E-02 AU
 TTTTTTTTTTTTTTTTTTTTTTTTTTTTTT PDIG        TELAPSE      728.83 TCPU      726.02
 CHARGE NORMALIZATION FACTOR   1.00000000
 TOTAL ATOMIC CHARGES:
  10.7605322  10.7605322  10.7605255  10.7605255  23.1504471  23.1504471
  23.1504543  23.1504543  23.1341374  23.1341374  23.1341461  23.1341461
   8.8810275   8.8810275   8.8798417   8.8798417   8.7597304   8.7597304
   8.7597335   8.7597335   8.8810113   8.8810113   8.8798639   8.8798639
   8.7734505   8.7734505   8.7937756   8.7937756   8.8670488   8.8670488
   8.8670569   8.8670569   8.7734313   8.7734313   8.7937860   8.7937860
 TTTTTTTTTTTTTTTTTTTTTTTTTTTTTT MOQGAD      TELAPSE      728.85 TCPU      726.03
 TTTTTTTTTTTTTTTTTTTTTTTTTTTTTT SHELLXN     TELAPSE      760.87 TCPU      758.05
 TTTTTTTTTTTTTTTTTTTTTTTTTTTTTT MONMO3      TELAPSE      761.29 TCPU      758.47
 NUMERICALLY INTEGRATED DENSITY    439.9999941443
 TTTTTTTTTTTTTTTTTTTTTTTTTTTTTT NUMDFT      TELAPSE      765.39 TCPU      762.56
 CYC  18 ETOT(AU) -4.968796506269E+03 DETOT  2.25E-09 tst  8.85E-12 PX  5.15E-06
 TTTTTTTTTTTTTTTTTTTTTTTTTTTTTT DIIS        TELAPSE      765.48 TCPU      762.64
 DIIS TEST: 0.84649E-08 AT SCF   CYCLE  18 - DIIS ACTIVE - HISTORY:    18 CYCLES
 TTTTTTTTTTTTTTTTTTTTTTTTTTTTTT FDIK        TELAPSE      767.13 TCPU      764.29
 INSULATING STATE
 TOP OF VALENCE BANDS -    BAND    220; K   43; EIG -1.9936146E-01 AU
 TOP OF VALENCE BANDS -    BAND    220; K    1; EIG -2.0528803E-01 AU
 BOTTOM OF VIRTUAL BANDS - BAND    221; K   43; EIG -1.9954574E-02 AU
 DIRECT ENERGY BAND GAP:   4.8819 eV
 BOTTOM OF VIRTUAL BANDS - BAND    221; K    1; EIG -1.3809154E-02 AU
 TTTTTTTTTTTTTTTTTTTTTTTTTTTTTT PDIG        TELAPSE      767.65 TCPU      764.81
 CHARGE NORMALIZATION FACTOR   1.00000000
 TOTAL ATOMIC CHARGES:
  10.7605314  10.7605314  10.7605271  10.7605271  23.1504476  23.1504476
  23.1504517  23.1504517  23.1341380  23.1341380  23.1341466  23.1341466
   8.8810156   8.8810156   8.8798501   8.8798501   8.7597402   8.7597402
   8.7597325   8.7597325   8.8810208   8.8810208   8.8798537   8.8798537
   8.7734375   8.7734375   8.7937810   8.7937810   8.8670570   8.8670570
   8.8670554   8.8670554   8.7734397   8.7734397   8.7937741   8.7937741
 TTTTTTTTTTTTTTTTTTTTTTTTTTTTTT MOQGAD      TELAPSE      767.67 TCPU      764.82
 TTTTTTTTTTTTTTTTTTTTTTTTTTTTTT SHELLXN     TELAPSE      799.88 TCPU      797.02
 TTTTTTTTTTTTTTTTTTTTTTTTTTTTTT MONMO3      TELAPSE      800.26 TCPU      797.40
 NUMERICALLY INTEGRATED DENSITY    439.9999941443
 TTTTTTTTTTTTTTTTTTTTTTTTTTTTTT NUMDFT      TELAPSE      804.18 TCPU      801.32
 CYC  19 ETOT(AU) -4.968796506269E+03 DETOT -6.68E-10 tst  5.69E-12 PX  3.59E-06
 TTTTTTTTTTTTTTTTTTTTTTTTTTTTTT DIIS        TELAPSE      804.34 TCPU      801.47
 DIIS TEST: 0.47369E-09 AT SCF   CYCLE  19 - DIIS ACTIVE - HISTORY:    19 CYCLES
 TTTTTTTTTTTTTTTTTTTTTTTTTTTTTT FDIK        TELAPSE      806.13 TCPU      803.26
 INSULATING STATE
 TOP OF VALENCE BANDS -    BAND    220; K   43; EIG -1.9936149E-01 AU
 TOP OF VALENCE BANDS -    BAND    220; K    1; EIG -2.0528805E-01 AU
 BOTTOM OF VIRTUAL BANDS - BAND    221; K   43; EIG -1.9954583E-02 AU
 DIRECT ENERGY BAND GAP:   4.8819 eV
 BOTTOM OF VIRTUAL BANDS - BAND    221; K    1; EIG -1.3809123E-02 AU
 TTTTTTTTTTTTTTTTTTTTTTTTTTTTTT PDIG        TELAPSE      806.65 TCPU      803.78
 CHARGE NORMALIZATION FACTOR   1.00000000
 TOTAL ATOMIC CHARGES:
  10.7605314  10.7605314  10.7605268  10.7605268  23.1504476  23.1504476
  23.1504520  23.1504520  23.1341380  23.1341380  23.1341467  23.1341467
[...]
-rw-r--r-- 1 fbodo linuxusers         0 Dec 26 10:01 fort.8.pe000
-rw-r--r-- 1 fbodo linuxusers         0 Dec 26 10:01 fort.8.pe001
-rw-r--r-- 1 fbodo linuxusers         0 Dec 26 10:01 fort.8.pe002
-rw-r--r-- 1 fbodo linuxusers         0 Dec 26 10:01 fort.8.pe003
-rw-r--r-- 1 fbodo linuxusers         0 Dec 26 10:01 fort.8.pe004
-rw-r--r-- 1 fbodo linuxusers         0 Dec 26 10:01 fort.8.pe005
-rw-r--r-- 1 fbodo linuxusers         0 Dec 26 10:01 fort.8.pe006
-rw-r--r-- 1 fbodo linuxusers         0 Dec 26 10:01 fort.8.pe007
-rw-r--r-- 1 fbodo linuxusers         0 Dec 26 10:01 fort.8.pe008
-rw-r--r-- 1 fbodo linuxusers         0 Dec 26 10:01 fort.8.pe009
-rw-r--r-- 1 fbodo linuxusers         0 Dec 26 10:01 fort.8.pe010
-rw-r--r-- 1 fbodo linuxusers         0 Dec 26 10:01 fort.8.pe011
-rw-r--r-- 1 fbodo linuxusers         0 Dec 26 10:01 fort.8.pe012
-rw-r--r-- 1 fbodo linuxusers         0 Dec 26 10:01 fort.8.pe013
-rw-r--r-- 1 fbodo linuxusers         0 Dec 26 10:01 fort.8.pe014
-rw-r--r-- 1 fbodo linuxusers         0 Dec 26 10:01 fort.8.pe015
-rw-r--r-- 1 fbodo linuxusers         0 Dec 26 10:01 fort.8.pe016
-rw-r--r-- 1 fbodo linuxusers         0 Dec 26 10:01 fort.8.pe017
-rw-r--r-- 1 fbodo linuxusers         0 Dec 26 10:01 fort.8.pe018
-rw-r--r-- 1 fbodo linuxusers         0 Dec 26 10:01 fort.8.pe019
-rw-r--r-- 1 fbodo linuxusers         0 Dec 26 10:01 fort.8.pe020
-rw-r--r-- 1 fbodo linuxusers         0 Dec 26 10:01 fort.8.pe021
-rw-r--r-- 1 fbodo linuxusers         0 Dec 26 10:01 fort.8.pe022
-rw-r--r-- 1 fbodo linuxusers         0 Dec 26 10:01 fort.8.pe023
-rw-r--r-- 1 fbodo linuxusers         0 Dec 26 10:01 fort.8.pe024
-rw-r--r-- 1 fbodo linuxusers         0 Dec 26 10:01 fort.8.pe025
-rw-r--r-- 1 fbodo linuxusers         0 Dec 26 10:01 fort.8.pe026
-rw-r--r-- 1 fbodo linuxusers         0 Dec 26 10:01 fort.8.pe027
-rw-r--r-- 1 fbodo linuxusers         0 Dec 26 10:01 fort.8.pe028
-rw-r--r-- 1 fbodo linuxusers         0 Dec 26 10:01 fort.8.pe029
-rw-r--r-- 1 fbodo linuxusers         0 Dec 26 10:01 fort.8.pe030
-rw-r--r-- 1 fbodo linuxusers         0 Dec 26 10:01 fort.8.pe031
-rw-r--r-- 1 fbodo linuxusers         0 Dec 26 10:01 fort.8.pe032
-rw-r--r-- 1 fbodo linuxusers         0 Dec 26 10:01 fort.8.pe033
-rw-r--r-- 1 fbodo linuxusers         0 Dec 26 10:01 fort.8.pe034
-rw-r--r-- 1 fbodo linuxusers         0 Dec 26 10:01 fort.8.pe035
-rw-r--r-- 1 fbodo linuxusers   5068936 Dec 26 18:47 fort.8.pe036
-rw-r--r-- 1 fbodo linuxusers  10137864 Dec 26 18:47 fort.8.pe037
-rw-r--r-- 1 fbodo linuxusers  10137864 Dec 26 18:47 fort.8.pe038
-rw-r--r-- 1 fbodo linuxusers   5068936 Dec 26 18:47 fort.8.pe039
-rw-r--r-- 1 fbodo linuxusers   2534472 Dec 26 18:47 fort.8.pe040
-rw-r--r-- 1 fbodo linuxusers   2534472 Dec 26 18:47 fort.8.pe041
-rw-r--r-- 1 fbodo linuxusers  10137864 Dec 26 18:47 fort.8.pe042
-rw-r--r-- 1 fbodo linuxusers  10137864 Dec 26 18:47 fort.8.pe043
-rw-r--r-- 1 fbodo linuxusers   2534472 Dec 26 18:47 fort.8.pe044
-rw-r--r-- 1 fbodo linuxusers   2534472 Dec 26 18:47 fort.8.pe045
-rw-r--r-- 1 fbodo linuxusers   2534472 Dec 26 18:47 fort.8.pe046
-rw-r--r-- 1 fbodo linuxusers   2534472 Dec 26 18:47 fort.8.pe047
-rw-r--r-- 1 fbodo linuxusers  10137864 Dec 26 18:47 fort.8.pe048
-rw-r--r-- 1 fbodo linuxusers  10137864 Dec 26 18:47 fort.8.pe049
-rw-r--r-- 1 fbodo linuxusers   2534472 Dec 26 18:47 fort.8.pe050
-rw-r--r-- 1 fbodo linuxusers   2534472 Dec 26 18:47 fort.8.pe051
-rw-r--r-- 1 fbodo linuxusers   1267240 Dec 26 18:47 fort.8.pe052
-rw-r--r-- 1 fbodo linuxusers   1267240 Dec 26 18:47 fort.8.pe053
-rw-r--r-- 1 fbodo linuxusers  10137864 Dec 26 18:47 fort.8.pe054
-rw-r--r-- 1 fbodo linuxusers  10137864 Dec 26 18:47 fort.8.pe055
-rw-r--r-- 1 fbodo linuxusers   1267240 Dec 26 18:47 fort.8.pe056
-rw-r--r-- 1 fbodo linuxusers   1267240 Dec 26 18:47 fort.8.pe057
-rw-r--r-- 1 fbodo linuxusers  10137864 Dec 26 18:47 fort.8.pe058
-rw-r--r-- 1 fbodo linuxusers  10137864 Dec 26 18:47 fort.8.pe059
-rw-r--r-- 1 fbodo linuxusers  10137864 Dec 26 18:47 fort.8.pe060
-rw-r--r-- 1 fbodo linuxusers  10137864 Dec 26 18:47 fort.8.pe061
-rw-r--r-- 1 fbodo linuxusers  10137864 Dec 26 18:47 fort.8.pe062
-rw-r--r-- 1 fbodo linuxusers  10137864 Dec 26 18:47 fort.8.pe063
-rw-r--r-- 1 fbodo linuxusers  10137864 Dec 26 18:47 fort.8.pe064
-rw-r--r-- 1 fbodo linuxusers  10137864 Dec 26 18:47 fort.8.pe065
-rw-r--r-- 1 fbodo linuxusers  10137864 Dec 26 18:47 fort.8.pe066
-rw-r--r-- 1 fbodo linuxusers  10137864 Dec 26 18:47 fort.8.pe067
-rw-r--r-- 1 fbodo linuxusers  10137864 Dec 26 18:47 fort.8.pe068
-rw-r--r-- 1 fbodo linuxusers  10137864 Dec 26 18:47 fort.8.pe069
-rw-r--r-- 1 fbodo linuxusers  10137864 Dec 26 18:47 fort.8.pe070
-rw-r--r-- 1 fbodo linuxusers  10137864 Dec 26 18:47 fort.8.pe071
-rw-r--r-- 1 fbodo linuxusers  10137864 Dec 26 18:47 fort.8.pe072
-rw-r--r-- 1 fbodo linuxusers  10137864 Dec 26 18:47 fort.8.pe073
-rw-r--r-- 1 fbodo linuxusers  10137864 Dec 26 18:47 fort.8.pe074
-rw-r--r-- 1 fbodo linuxusers  10137864 Dec 26 18:47 fort.8.pe075
-rw-r--r-- 1 fbodo linuxusers  10137864 Dec 26 18:47 fort.8.pe076
-rw-r--r-- 1 fbodo linuxusers  10137864 Dec 26 18:47 fort.8.pe077
-rw-r--r-- 1 fbodo linuxusers  10137864 Dec 26 18:47 fort.8.pe078
-rw-r--r-- 1 fbodo linuxusers  10137864 Dec 26 18:47 fort.8.pe079
-rw-r--r-- 1 fbodo linuxusers  10137864 Dec 26 18:47 fort.8.pe080
-rw-r--r-- 1 fbodo linuxusers  10137864 Dec 26 18:47 fort.8.pe081
-rw-r--r-- 1 fbodo linuxusers  10137864 Dec 26 18:47 fort.8.pe082
-rw-r--r-- 1 fbodo linuxusers  10137864 Dec 26 18:47 fort.8.pe083
-rw-r--r-- 1 fbodo linuxusers  10137864 Dec 26 18:47 fort.8.pe084
-rw-r--r-- 1 fbodo linuxusers  10137864 Dec 26 18:47 fort.8.pe085
-rw-r--r-- 1 fbodo linuxusers  10137864 Dec 26 18:47 fort.8.pe086
-rw-r--r-- 1 fbodo linuxusers  10137864 Dec 26 18:47 fort.8.pe087
-rw-r--r-- 1 fbodo linuxusers  10137864 Dec 26 18:47 fort.8.pe088
-rw-r--r-- 1 fbodo linuxusers  10137864 Dec 26 18:47 fort.8.pe089
-rw-r--r-- 1 fbodo linuxusers  10137864 Dec 26 18:47 fort.8.pe090
-rw-r--r-- 1 fbodo linuxusers  10137864 Dec 26 18:47 fort.8.pe091
-rw-r--r-- 1 fbodo linuxusers  10137864 Dec 26 18:47 fort.8.pe092
-rw-r--r-- 1 fbodo linuxusers  10137864 Dec 26 18:47 fort.8.pe093
-rw-r--r-- 1 fbodo linuxusers  10137864 Dec 26 18:47 fort.8.pe094
-rw-r--r-- 1 fbodo linuxusers  10137864 Dec 26 18:47 fort.8.pe095
-rw-r--r-- 1 fbodo linuxusers  10137864 Dec 26 18:47 fort.8.pe096
-rw-r--r-- 1 fbodo linuxusers  10137864 Dec 26 18:47 fort.8.pe097
-rw-r--r-- 1 fbodo linuxusers  10137864 Dec 26 18:47 fort.8.pe098
-rw-r--r-- 1 fbodo linuxusers  10137864 Dec 26 18:47 fort.8.pe099
-rw-r--r-- 1 fbodo linuxusers  10137864 Dec 26 18:47 fort.8.pe100
-rw-r--r-- 1 fbodo linuxusers  10137864 Dec 26 18:47 fort.8.pe101
-rw-r--r-- 1 fbodo linuxusers  10137864 Dec 26 18:47 fort.8.pe102
-rw-r--r-- 1 fbodo linuxusers  10137864 Dec 26 18:47 fort.8.pe103
-rw-r--r-- 1 fbodo linuxusers  10137864 Dec 26 18:47 fort.8.pe104
-rw-r--r-- 1 fbodo linuxusers  10137864 Dec 26 18:47 fort.8.pe105
-rw-r--r-- 1 fbodo linuxusers   5068936 Dec 26 18:47 fort.8.pe106
-rw-r--r-- 1 fbodo linuxusers  10137864 Dec 26 18:47 fort.8.pe107
-rw-r--r-- 1 fbodo linuxusers  10137864 Dec 26 18:47 fort.8.pe108
-rw-r--r-- 1 fbodo linuxusers   5068936 Dec 26 18:47 fort.8.pe109
-rw-r--r-- 1 fbodo linuxusers   2534472 Dec 26 18:47 fort.8.pe110
-rw-r--r-- 1 fbodo linuxusers   2534472 Dec 26 18:47 fort.8.pe111
-rw-r--r-- 1 fbodo linuxusers  10137864 Dec 26 18:47 fort.8.pe112
-rw-r--r-- 1 fbodo linuxusers  10137864 Dec 26 18:47 fort.8.pe113
-rw-r--r-- 1 fbodo linuxusers   2534472 Dec 26 18:47 fort.8.pe114
-rw-r--r-- 1 fbodo linuxusers   2534472 Dec 26 18:47 fort.8.pe115
-rw-r--r-- 1 fbodo linuxusers   2534472 Dec 26 18:47 fort.8.pe116
-rw-r--r-- 1 fbodo linuxusers   2534472 Dec 26 18:47 fort.8.pe117
-rw-r--r-- 1 fbodo linuxusers  10137864 Dec 26 18:47 fort.8.pe118
-rw-r--r-- 1 fbodo linuxusers  10137864 Dec 26 18:47 fort.8.pe119
-rw-r--r-- 1 fbodo linuxusers   2534472 Dec 26 18:47 fort.8.pe120
-rw-r--r-- 1 fbodo linuxusers   2534472 Dec 26 18:47 fort.8.pe121
-rw-r--r-- 1 fbodo linuxusers   1267240 Dec 26 18:47 fort.8.pe122
-rw-r--r-- 1 fbodo linuxusers   1267240 Dec 26 18:47 fort.8.pe123
-rw-r--r-- 1 fbodo linuxusers  10137864 Dec 26 18:47 fort.8.pe124
-rw-r--r-- 1 fbodo linuxusers  10137864 Dec 26 18:47 fort.8.pe125
-rw-r--r-- 1 fbodo linuxusers   1267240 Dec 26 18:47 fort.8.pe126
-rw-r--r-- 1 fbodo linuxusers   1267240 Dec 26 18:47 fort.8.pe127
-rw-r----- 1 fbodo linuxusers  14031380 Dec 26 18:53 fort.9
-rw-r--r-- 1 fbodo linuxusers   9412184 Dec 26 18:47 fort.95.pe000
-rw-r--r-- 1 fbodo linuxusers   9412184 Dec 26 18:47 fort.95.pe001
-rw-r--r-- 1 fbodo linuxusers   9412184 Dec 26 18:47 fort.95.pe002
-rw-r--r-- 1 fbodo linuxusers   9412184 Dec 26 18:47 fort.95.pe003
-rw-r--r-- 1 fbodo linuxusers   9412184 Dec 26 18:47 fort.95.pe004
-rw-r--r-- 1 fbodo linuxusers   9412184 Dec 26 18:47 fort.95.pe005
-rw-r--r-- 1 fbodo linuxusers   9412184 Dec 26 18:47 fort.95.pe006
-rw-r--r-- 1 fbodo linuxusers   9412184 Dec 26 18:47 fort.95.pe007
-rw-r--r-- 1 fbodo linuxusers   9412184 Dec 26 18:47 fort.95.pe008
-rw-r--r-- 1 fbodo linuxusers   9412184 Dec 26 18:47 fort.95.pe009
-rw-r--r-- 1 fbodo linuxusers   9412184 Dec 26 18:47 fort.95.pe010
-rw-r--r-- 1 fbodo linuxusers   9412184 Dec 26 18:47 fort.95.pe011
-rw-r--r-- 1 fbodo linuxusers   9412184 Dec 26 18:47 fort.95.pe012
-rw-r--r-- 1 fbodo linuxusers   9412184 Dec 26 18:47 fort.95.pe013
-rw-r--r-- 1 fbodo linuxusers   9412184 Dec 26 18:47 fort.95.pe014
-rw-r--r-- 1 fbodo linuxusers   9412184 Dec 26 18:47 fort.95.pe015
-rw-r--r-- 1 fbodo linuxusers   9412184 Dec 26 18:47 fort.95.pe016
-rw-r--r-- 1 fbodo linuxusers   9412184 Dec 26 18:47 fort.95.pe017
-rw-r--r-- 1 fbodo linuxusers   9412184 Dec 26 18:47 fort.95.pe018
-rw-r--r-- 1 fbodo linuxusers   9412184 Dec 26 18:47 fort.95.pe019
-rw-r--r-- 1 fbodo linuxusers   9412184 Dec 26 18:47 fort.95.pe020
-rw-r--r-- 1 fbodo linuxusers   9412184 Dec 26 18:47 fort.95.pe021
-rw-r--r-- 1 fbodo linuxusers   9412184 Dec 26 18:47 fort.95.pe022
-rw-r--r-- 1 fbodo linuxusers   9412184 Dec 26 18:47 fort.95.pe023
-rw-r--r-- 1 fbodo linuxusers   9412184 Dec 26 18:47 fort.95.pe024
-rw-r--r-- 1 fbodo linuxusers   9412184 Dec 26 18:47 fort.95.pe025
-rw-r--r-- 1 fbodo linuxusers   9412184 Dec 26 18:47 fort.95.pe026
-rw-r--r-- 1 fbodo linuxusers   9412184 Dec 26 18:47 fort.95.pe027
-rw-r--r-- 1 fbodo linuxusers   9412184 Dec 26 18:47 fort.95.pe028
-rw-r--r-- 1 fbodo linuxusers   9412184 Dec 26 18:47 fort.95.pe029
-rw-r--r-- 1 fbodo linuxusers   9412184 Dec 26 18:47 fort.95.pe030
-rw-r--r-- 1 fbodo linuxusers   9412184 Dec 26 18:47 fort.95.pe031
-rw-r--r-- 1 fbodo linuxusers   9412184 Dec 26 18:47 fort.95.pe032
-rw-r--r-- 1 fbodo linuxusers   9412184 Dec 26 18:47 fort.95.pe033
-rw-r--r-- 1 fbodo linuxusers   9412184 Dec 26 18:47 fort.95.pe034
-rw-r--r-- 1 fbodo linuxusers   9412184 Dec 26 18:47 fort.95.pe035
-rw-r--r-- 1 fbodo linuxusers   9412184 Dec 26 18:47 fort.95.pe036
-rw-r--r-- 1 fbodo linuxusers   9412184 Dec 26 18:47 fort.95.pe037
-rw-r--r-- 1 fbodo linuxusers   9412184 Dec 26 18:47 fort.95.pe038
-rw-r--r-- 1 fbodo linuxusers   9412184 Dec 26 18:47 fort.95.pe039
-rw-r--r-- 1 fbodo linuxusers   9412184 Dec 26 18:47 fort.95.pe040
-rw-r--r-- 1 fbodo linuxusers   9412184 Dec 26 18:47 fort.95.pe041
-rw-r--r-- 1 fbodo linuxusers   9412184 Dec 26 18:47 fort.95.pe042
-rw-r--r-- 1 fbodo linuxusers   9412184 Dec 26 18:47 fort.95.pe043
-rw-r--r-- 1 fbodo linuxusers   9412184 Dec 26 18:47 fort.95.pe044
-rw-r--r-- 1 fbodo linuxusers   9412184 Dec 26 18:47 fort.95.pe045
-rw-r--r-- 1 fbodo linuxusers   9412184 Dec 26 18:47 fort.95.pe046
-rw-r--r-- 1 fbodo linuxusers   9412184 Dec 26 18:47 fort.95.pe047
-rw-r--r-- 1 fbodo linuxusers   9412184 Dec 26 18:47 fort.95.pe048
-rw-r--r-- 1 fbodo linuxusers   9412184 Dec 26 18:47 fort.95.pe049
-rw-r--r-- 1 fbodo linuxusers   9412184 Dec 26 18:47 fort.95.pe050
-rw-r--r-- 1 fbodo linuxusers   9412184 Dec 26 18:47 fort.95.pe051
-rw-r--r-- 1 fbodo linuxusers   9412184 Dec 26 18:47 fort.95.pe052
-rw-r--r-- 1 fbodo linuxusers   9412184 Dec 26 18:47 fort.95.pe053
-rw-r--r-- 1 fbodo linuxusers   9412184 Dec 26 18:47 fort.95.pe054
-rw-r--r-- 1 fbodo linuxusers   9412184 Dec 26 18:47 fort.95.pe055
-rw-r--r-- 1 fbodo linuxusers   9412184 Dec 26 18:47 fort.95.pe056
-rw-r--r-- 1 fbodo linuxusers   9412184 Dec 26 18:47 fort.95.pe057
-rw-r--r-- 1 fbodo linuxusers   9412184 Dec 26 18:47 fort.95.pe058
-rw-r--r-- 1 fbodo linuxusers   9412184 Dec 26 18:47 fort.95.pe059
-rw-r--r-- 1 fbodo linuxusers   9412184 Dec 26 18:47 fort.95.pe060
-rw-r--r-- 1 fbodo linuxusers   9412184 Dec 26 18:47 fort.95.pe061
-rw-r--r-- 1 fbodo linuxusers   9412184 Dec 26 18:47 fort.95.pe062
-rw-r--r-- 1 fbodo linuxusers   9412184 Dec 26 18:47 fort.95.pe063
-rw-r--r-- 1 fbodo linuxusers   9412184 Dec 26 18:47 fort.95.pe064
-rw-r--r-- 1 fbodo linuxusers   9412184 Dec 26 18:47 fort.95.pe065
-rw-r--r-- 1 fbodo linuxusers   9412184 Dec 26 18:47 fort.95.pe066
-rw-r--r-- 1 fbodo linuxusers   9412184 Dec 26 18:47 fort.95.pe067
-rw-r--r-- 1 fbodo linuxusers   9412184 Dec 26 18:47 fort.95.pe068
-rw-r--r-- 1 fbodo linuxusers   9412184 Dec 26 18:47 fort.95.pe069
-rw-r--r-- 1 fbodo linuxusers   9412184 Dec 26 18:47 fort.95.pe070
-rw-r--r-- 1 fbodo linuxusers   9412184 Dec 26 18:47 fort.95.pe071
-rw-r--r-- 1 fbodo linuxusers   9412184 Dec 26 18:47 fort.95.pe072
-rw-r--r-- 1 fbodo linuxusers   9412184 Dec 26 18:47 fort.95.pe073
-rw-r--r-- 1 fbodo linuxusers   9412184 Dec 26 18:47 fort.95.pe074
-rw-r--r-- 1 fbodo linuxusers   9412184 Dec 26 18:47 fort.95.pe075
-rw-r--r-- 1 fbodo linuxusers   9412184 Dec 26 18:47 fort.95.pe076
-rw-r--r-- 1 fbodo linuxusers   9412184 Dec 26 18:47 fort.95.pe077
-rw-r--r-- 1 fbodo linuxusers   9412184 Dec 26 18:47 fort.95.pe078
-rw-r--r-- 1 fbodo linuxusers   9412184 Dec 26 18:47 fort.95.pe079
-rw-r--r-- 1 fbodo linuxusers   9412184 Dec 26 18:47 fort.95.pe080
-rw-r--r-- 1 fbodo linuxusers   9412184 Dec 26 18:47 fort.95.pe081
-rw-r--r-- 1 fbodo linuxusers   9412184 Dec 26 18:47 fort.95.pe082
-rw-r--r-- 1 fbodo linuxusers   9412184 Dec 26 18:47 fort.95.pe083
-rw-r--r-- 1 fbodo linuxusers   9412184 Dec 26 18:47 fort.95.pe084
-rw-r--r-- 1 fbodo linuxusers   9412184 Dec 26 18:47 fort.95.pe085
-rw-r--r-- 1 fbodo linuxusers   9412184 Dec 26 18:47 fort.95.pe086
-rw-r--r-- 1 fbodo linuxusers   9412184 Dec 26 18:47 fort.95.pe087
-rw-r--r-- 1 fbodo linuxusers   9412184 Dec 26 18:47 fort.95.pe088
-rw-r--r-- 1 fbodo linuxusers   9412184 Dec 26 18:47 fort.95.pe089
-rw-r--r-- 1 fbodo linuxusers   9412184 Dec 26 18:47 fort.95.pe090
-rw-r--r-- 1 fbodo linuxusers   9412184 Dec 26 18:47 fort.95.pe091
-rw-r--r-- 1 fbodo linuxusers   9412184 Dec 26 18:47 fort.95.pe092
-rw-r--r-- 1 fbodo linuxusers   9412184 Dec 26 18:47 fort.95.pe093
-rw-r--r-- 1 fbodo linuxusers   9412184 Dec 26 18:47 fort.95.pe094
-rw-r--r-- 1 fbodo linuxusers   9412184 Dec 26 18:47 fort.95.pe095
-rw-r--r-- 1 fbodo linuxusers   9412184 Dec 26 18:47 fort.95.pe096
-rw-r--r-- 1 fbodo linuxusers   9412184 Dec 26 18:47 fort.95.pe097
-rw-r--r-- 1 fbodo linuxusers   9412184 Dec 26 18:47 fort.95.pe098
-rw-r--r-- 1 fbodo linuxusers   9412184 Dec 26 18:47 fort.95.pe099
-rw-r--r-- 1 fbodo linuxusers   9412184 Dec 26 18:47 fort.95.pe100
-rw-r--r-- 1 fbodo linuxusers   9412184 Dec 26 18:47 fort.95.pe101
-rw-r--r-- 1 fbodo linuxusers   9412184 Dec 26 18:47 fort.95.pe102
-rw-r--r-- 1 fbodo linuxusers   9412184 Dec 26 18:47 fort.95.pe103
-rw-r--r-- 1 fbodo linuxusers   9412184 Dec 26 18:47 fort.95.pe104
-rw-r--r-- 1 fbodo linuxusers   9412184 Dec 26 18:47 fort.95.pe105
-rw-r--r-- 1 fbodo linuxusers   9412184 Dec 26 18:47 fort.95.pe106
-rw-r--r-- 1 fbodo linuxusers   9412184 Dec 26 18:47 fort.95.pe107
-rw-r--r-- 1 fbodo linuxusers   9412184 Dec 26 18:47 fort.95.pe108
-rw-r--r-- 1 fbodo linuxusers   9412184 Dec 26 18:47 fort.95.pe109
-rw-r--r-- 1 fbodo linuxusers   9412184 Dec 26 18:47 fort.95.pe110
-rw-r--r-- 1 fbodo linuxusers   9412184 Dec 26 18:47 fort.95.pe111
-rw-r--r-- 1 fbodo linuxusers   9412184 Dec 26 18:47 fort.95.pe112
-rw-r--r-- 1 fbodo linuxusers   9412184 Dec 26 18:47 fort.95.pe113
-rw-r--r-- 1 fbodo linuxusers   9412184 Dec 26 18:47 fort.95.pe114
-rw-r--r-- 1 fbodo linuxusers   9412184 Dec 26 18:47 fort.95.pe115
-rw-r--r-- 1 fbodo linuxusers   9412184 Dec 26 18:47 fort.95.pe116
-rw-r--r-- 1 fbodo linuxusers   9412184 Dec 26 18:47 fort.95.pe117
-rw-r--r-- 1 fbodo linuxusers   9412184 Dec 26 18:47 fort.95.pe118
-rw-r--r-- 1 fbodo linuxusers   9412184 Dec 26 18:47 fort.95.pe119
-rw-r--r-- 1 fbodo linuxusers   9412184 Dec 26 18:47 fort.95.pe120
-rw-r--r-- 1 fbodo linuxusers   9412184 Dec 26 18:47 fort.95.pe121
-rw-r--r-- 1 fbodo linuxusers   9412184 Dec 26 18:47 fort.95.pe122
-rw-r--r-- 1 fbodo linuxusers   9412184 Dec 26 18:47 fort.95.pe123
-rw-r--r-- 1 fbodo linuxusers   9412184 Dec 26 18:47 fort.95.pe124
-rw-r--r-- 1 fbodo linuxusers   9412184 Dec 26 18:47 fort.95.pe125
-rw-r--r-- 1 fbodo linuxusers   9412184 Dec 26 18:47 fort.95.pe126
-rw-r--r-- 1 fbodo linuxusers   9412184 Dec 26 18:47 fort.95.pe127
-rw-r--r-- 1 fbodo linuxusers  36905641 Dec 26 18:53 fort.98
-rw-r--r-- 1 fbodo linuxusers     69042 Dec 26 18:53 HESSOPT.DAT
-rw-r----- 1 fbodo linuxusers      1403 Dec 26 10:01 INPUT
-rw-r--r-- 1 fbodo linuxusers      3122 Dec 26 10:19 optc001
-rw-r--r-- 1 fbodo linuxusers      3122 Dec 26 10:34 optc002
-rw-r--r-- 1 fbodo linuxusers      3122 Dec 26 10:52 optc003
-rw-r--r-- 1 fbodo linuxusers      3122 Dec 26 11:11 optc004
-rw-r--r-- 1 fbodo linuxusers      3122 Dec 26 11:30 optc005
-rw-r--r-- 1 fbodo linuxusers      3122 Dec 26 11:47 optc006
-rw-r--r-- 1 fbodo linuxusers      3122 Dec 26 12:05 optc007
-rw-r--r-- 1 fbodo linuxusers      3122 Dec 26 12:22 optc008
-rw-r--r-- 1 fbodo linuxusers      3122 Dec 26 12:38 optc009
-rw-r--r-- 1 fbodo linuxusers      3122 Dec 26 12:56 optc010
-rw-r--r-- 1 fbodo linuxusers      3122 Dec 26 13:15 optc011
-rw-r--r-- 1 fbodo linuxusers      3122 Dec 26 13:33 optc012
-rw-r--r-- 1 fbodo linuxusers      3122 Dec 26 13:52 optc013
-rw-r--r-- 1 fbodo linuxusers      3122 Dec 26 14:10 optc014
-rw-r--r-- 1 fbodo linuxusers      3122 Dec 26 14:28 optc015
-rw-r--r-- 1 fbodo linuxusers      3122 Dec 26 14:44 optc016
-rw-r--r-- 1 fbodo linuxusers      3122 Dec 26 15:00 optc017
-rw-r--r-- 1 fbodo linuxusers      3122 Dec 26 15:17 optc018
-rw-r--r-- 1 fbodo linuxusers      3122 Dec 26 15:35 optc019
-rw-r--r-- 1 fbodo linuxusers      3122 Dec 26 15:52 optc020
-rw-r--r-- 1 fbodo linuxusers      3122 Dec 26 16:10 optc021
-rw-r--r-- 1 fbodo linuxusers      3122 Dec 26 16:27 optc022
-rw-r--r-- 1 fbodo linuxusers      3122 Dec 26 16:44 optc023
-rw-r--r-- 1 fbodo linuxusers      3122 Dec 26 16:57 optc024
-rw-r--r-- 1 fbodo linuxusers      3122 Dec 26 17:10 optc025
-rw-r--r-- 1 fbodo linuxusers      3122 Dec 26 17:23 optc026
-rw-r--r-- 1 fbodo linuxusers      3122 Dec 26 17:34 optc027
-rw-r--r-- 1 fbodo linuxusers      3122 Dec 26 17:43 optc028
-rw-r--r-- 1 fbodo linuxusers      3122 Dec 26 17:56 optc029
-rw-r--r-- 1 fbodo linuxusers      3122 Dec 26 18:09 optc030
-rw-r--r-- 1 fbodo linuxusers      3122 Dec 26 18:22 optc031
-rw-r--r-- 1 fbodo linuxusers      3122 Dec 26 18:31 optc032
-rw-r--r-- 1 fbodo linuxusers      3122 Dec 26 18:43 optc033
-rw-r--r-- 1 fbodo linuxusers      3122 Dec 26 18:53 optc034
-rw-r----- 1 fbodo linuxusers  84805704 Dec 26 18:53 OPTINFO.DAT
-rwxr-xr-x 1 fbodo linuxusers 112779232 Dec 26 10:01 Pcrystal
lrwxrwxrwx 1 fbodo linuxusers        84 Dec 26 10:01 SCFOUT.LOG -> /users/fbodo/Application/fbodo/Fili/Mg(IO3)2/P21/MgIO32_p21_OPT_exp_pbe0d3_3GPa.out2
================================================================================
Copying output file back on run directory...
================================================================================
Removing temporary directory /lustre/scratch/client/users/fbodo/prova/tmp_p4105123 from each node...
Job terminated
