nproc:128
Pcrystal executable in: /users/fbodo/SVN_PUB_NEW/bin/Linux-gfortran_new/std/Pcrystal
Master system: Linux c011 5.15.0-47-generic #51-Ubuntu SMP Thu Aug 11 07:51:15 UTC 2022 x86_64 x86_64 x86_64 GNU/Linux
ls -ltr $BINDIR
total 420340
-rwxr-xr-x 1 fbodo linuxusers 101580248 Oct 28 17:33 properties
-rwxr-xr-x 1 fbodo linuxusers 101643032 Oct 28 17:33 Pproperties
-rwxr-xr-x 1 fbodo linuxusers 112779232 Oct 28 17:33 Pcrystal
-rwxr-xr-x 1 fbodo linuxusers 112716416 Oct 28 17:33 crystal
================================================================================
Module loading in /lustre/scratch/client/users/fbodo/prova/tmp_p2597090
================================================================================
Loading gcc and openmpi modules ...
1) # module load gcc/11.2.0
2) # module load openmpi/4.1.6-a4ksrza
================================================================================
Starting Pcrystal SLURM job
================================================================================
Time: Thu Dec 26 10:12:21 AM CST 2024
SLURM job ID: 16982050
Master hostname: c011
User: fbodo
Input file: MgIO32_p21_OPT_exp_pbe0d3_2GPa.d12
Output file: MgIO32_p21_OPT_exp_pbe0d3_2GPa.out
Number of processors: 128
Nodes list: c011
================================================================================
Creating temporary directory /lustre/scratch/client/users/fbodo/prova/tmp_p2597090 on each node...
Copying input file MgIO32_p21_OPT_exp_pbe0d3_2GPa.d12 on each node...
Copying Pcrystal on each node...
================================================================================
Contents of input file
================================================================================
Mg(IO3)2 P21
CRYSTAL
0 0 0
4
10.91548727     4.68788110    10.98995581  119.792155
18
12    -4.903816837676E-01  4.273869170330E-01  2.556262784018E-01
12    -9.547639890218E-03 -7.248077675227E-02  2.443400395077E-01
53     1.661076262996E-01  4.807825817706E-01  9.414123125874E-02
53     3.339596176091E-01 -1.935219919268E-02  4.058802209579E-01
53    -1.659770605746E-01 -1.314020605946E-02  4.304312004607E-01
53    -3.339858202950E-01  4.868699550421E-01  6.955903939722E-02
 8     3.322670823271E-01 -3.329051462015E-01  1.323521669174E-01
 8     5.271718697705E-02 -3.208400560467E-01 -7.085130211821E-02
 8     1.326129125532E-01 -2.870139036671E-01  2.107663532160E-01
 8     3.674169863429E-01  2.129877897235E-01  2.892769773961E-01
 8     1.678079881077E-01  1.669657686805E-01  3.677268030772E-01
 8     4.473865248759E-01  1.789865079484E-01 -4.291198961688E-01
 8    -3.156838679305E-01  2.116081018715E-01  4.081241508822E-01
 8    -2.426122803150E-02  1.892229221597E-01 -4.204854854803E-01
 8    -1.415297449447E-01  1.534951773087E-01  2.910988562231E-01
 8    -3.584625473646E-01 -3.464435791456E-01  2.088710849815E-01
 8    -1.843122405684E-01 -2.883030060940E-01  9.185919917954E-02
 8    -4.757047049135E-01 -3.108268483786E-01 -7.956305967332E-02
OPTGEOM
EXTPRESS
0.0000679786547
END
BASISSET
POB-TZVP-REV2
DFT
PBE0-D3
HUGEGRID
END
TOLINTEG
8 8 8 8 27
TOLDEE
9
SHRINK
6 6
END
================================================================================
Time: Thu Dec 26 10:12:22 AM CST 2024
Starting Pcrystal job in /lustre/scratch/client/users/fbodo/prova/tmp_p2597090 on each node...
================================================================================

command /hpc/m3/spack/opt/spack/linux-ubuntu22.04-zen3/gcc-11.2.0/openmpi-4.1.6-a4ksrzarq4qdqcx545m6o47ytlwsgqyk/bin/mpirun -np 128 Pcrystal < /lustre/scratch/client/users/fbodo/prova/tmp_p2597090/INPUT
/hpc/m3/spack/opt/spack/linux-ubuntu22.04-zen3/gcc-11.2.0/openmpi-4.1.6-a4ksrzarq4qdqcx545m6o47ytlwsgqyk/bin/mpirun
         128 PROCESSORS WORKING

         
 *******************************************************************************
 *                                                                             *
 *                               CRYSTAL23                                     *
 *                      public : 1.0.1 - October 2022                          *
 *                       HTTP://WWW.CRYSTAL.UNITO.IT                           *
 *                                                                             *
 *                              MAIN AUTHORS                                   *
 *                                                                             *
 *  R. DOVESI(1,11), V.R. SAUNDERS(2), C. ROETTI(1,11), R. ORLANDO(1,11),      *
 *  C.M. ZICOVICH-WILSON(1,3), F. PASCALE(4), B. CIVALLERI(1,11),              *
 *  K. DOLL(5), N.M. HARRISON(6), I.J. BUSH(7), Ph. D'ARCO(8),                 *
 *  M. LLUNELL(9), M. CAUSA'(10), Y. NOEL(8), L. MASCHIO(1,11), A. ERBA(1,11)  *
 *  M. RE'RAT(14), S. CASASSA(1,11), B.G. SEARLE(2), J.K. DESMARAIS(1)         *
 *                                                                             *
 *        CONTRIBUTIONS TO THE CODE HAVE ALSO BEEN GIVEN BY                    *
 *                                                                             *
 *  M. FERRABONE(1,11), M. DE LA PIERRE(1,11), M. FERRERO(1,11),               *
 *  J. BAIMA(1,11), E. ALBANESE(1,11), M.F. PEINTINGER(12), R. BAST(13),       *
 *  B. KIRTMAN(15), V. LACIVITA(1,11), R. DEMICHELIS(1,16)                     *
 *  G. BRANDEBURG(17), S. SALUSTRO(1,11), G. SANSONE(1,11)                     *
 *  M.T. RUGGIERO(18), L.E. DAGA(1), L. DONA'(1), A. COSSARD(1)                *
 *                                                                             *
 * (1) THEORETICAL CHEMISTRY GROUP - UNIVERSITA' DI TORINO - TORINO (ITALY)    *
 * (2) SCIENTIFIC COMPUTING DEPARTMENT - STFC DARESBURY (UK)                   *
 * (3) UNIVERSIDAD AUTONOMA DEL ESTADO DE MORELOS - CUERNAVACA (MEXICO)        *
 * (4) UNIVERSITE' DE LORRAINE - NANCY (FRANCE)                                *
 * (5) UNIVERSITAET STUTTGART- STUTTGART (GERMANY)                             *
 * (6) IMPERIAL COLLEGE - LONDON (UK)                                          *
 * (7) SCIENTIFIC COMPUTING DEPARTMENT - STFC RAL (UK)                         *
 * (8) UPMC - SORBONNE UNIVERSITES - PARIS (FRANCE)                            *
 * (9) UNIVERSIDAD DE BARCELONA - BARCELONA (SPAIN)                            *
 *(10) UNIVERSITA' DI NAPOLI "FEDERICO II" - NAPOLI (ITALY)                    *
 *(11) NIS - NANOSTRUCTURED INTERFACES AND SURFACES - TORINO (ITALY)           *
 *(12) MPI FUER CHEMISCHE ENERGIEKONVERSION - MUELHEIM AN DER RUHR (GERMANY)   *
 *(13) UNIVERSITY OF TROMSO - TROMSO (NORWAY)                                  *
 *(14) UNIVERSITE' DE PAU ET DES PAYS DE L'ADOUR - PAU (FRANCE)                *
 *(15) UNIVERSITY OF CALIFORNIA SANTA BARBARA - SANTA BARBARA (USA)            *
 *(16) CURTIN UNIVERSITY - PERTH (AUSTRALIA)                                   *
 *(17) UNIVERSITY COLLEGE LONDON - LONDON (UK)                                 *
 *(18) UNIVERSITY OF VERMONT - BURLINGTON (USA)                                *
 *                                                                             *
 *******************************************************************************
 EEEEEEEEEE STARTING  DATE 26 12 2024 TIME 10:12:25.4
 Mg(IO3)2 P21                                                                    

 CRYSTAL CALCULATION
 (INPUT ACCORDING TO THE INTERNATIONAL TABLES FOR X-RAY CRYSTALLOGRAPHY)
 CRYSTAL FAMILY                       :  MONOCLINIC  
 CRYSTAL CLASS  (GROTH - 1921)        :  MONOCLINIC SPHENOIDAL                

 SPACE GROUP (NONCENTROSYMMETRIC)     :  P 21            

 LATTICE PARAMETERS  (ANGSTROMS AND DEGREES) - CONVENTIONAL CELL
        A           B           C        ALPHA        BETA       GAMMA
    10.91549     4.68788    10.98996    90.00000   119.79215    90.00000


 NUMBER OF IRREDUCIBLE ATOMS IN THE CONVENTIONAL CELL:   18

 INPUT COORDINATES

 ATOM AT. N.              COORDINATES
   1  12    -4.903816837676E-01  4.273869170330E-01  2.556262784018E-01
   2  12    -9.547639890218E-03 -7.248077675227E-02  2.443400395077E-01
   3  53     1.661076262996E-01  4.807825817706E-01  9.414123125874E-02
   4  53     3.339596176091E-01 -1.935219919268E-02  4.058802209579E-01
   5  53    -1.659770605746E-01 -1.314020605946E-02  4.304312004607E-01
   6  53    -3.339858202950E-01  4.868699550421E-01  6.955903939722E-02
   7   8     3.322670823271E-01 -3.329051462015E-01  1.323521669174E-01
   8   8     5.271718697705E-02 -3.208400560467E-01 -7.085130211821E-02
   9   8     1.326129125532E-01 -2.870139036671E-01  2.107663532160E-01
  10   8     3.674169863429E-01  2.129877897235E-01  2.892769773961E-01
  11   8     1.678079881077E-01  1.669657686805E-01  3.677268030772E-01
  12   8     4.473865248759E-01  1.789865079484E-01 -4.291198961688E-01
  13   8    -3.156838679305E-01  2.116081018715E-01  4.081241508822E-01
  14   8    -2.426122803150E-02  1.892229221597E-01 -4.204854854803E-01
  15   8    -1.415297449447E-01  1.534951773087E-01  2.910988562231E-01
  16   8    -3.584625473646E-01 -3.464435791456E-01  2.088710849815E-01
  17   8    -1.843122405684E-01 -2.883030060940E-01  9.185919917954E-02
  18   8    -4.757047049135E-01 -3.108268483786E-01 -7.956305967332E-02

 *******************************************************************************

 << INFORMATION >>: FROM NOW ON, ALL COORDINATES REFER TO THE PRIMITIVE CELL

 *******************************************************************************

 LATTICE PARAMETERS  (ANGSTROMS AND DEGREES) - PRIMITIVE CELL
       A          B          C        ALPHA      BETA     GAMMA        VOLUME
   10.91549    4.68788   10.98996    90.00000 119.79216  90.00000    488.036235

 COORDINATES OF THE EQUIVALENT ATOMS (FRACTIONAL UNITS)

 N. ATOM EQUIV AT. N.          X                  Y                  Z

   1   1   1   12 MG   -4.90381683768E-01  4.27386917033E-01  2.55626278402E-01
   2   1   2   12 MG    4.90381683768E-01 -7.26130829670E-02 -2.55626278402E-01

   3   2   1   12 MG   -9.54763989022E-03 -7.24807767523E-02  2.44340039508E-01
   4   2   2   12 MG    9.54763989022E-03  4.27519223248E-01 -2.44340039508E-01

   5   3   1   53 I     1.66107626300E-01  4.80782581771E-01  9.41412312587E-02
   6   3   2   53 I    -1.66107626300E-01 -1.92174182294E-02 -9.41412312587E-02

   7   4   1   53 I     3.33959617609E-01 -1.93521991927E-02  4.05880220958E-01
   8   4   2   53 I    -3.33959617609E-01  4.80647800807E-01 -4.05880220958E-01

   9   5   1   53 I    -1.65977060575E-01 -1.31402060595E-02  4.30431200461E-01
  10   5   2   53 I     1.65977060575E-01  4.86859793941E-01 -4.30431200461E-01

  11   6   1   53 I    -3.33985820295E-01  4.86869955042E-01  6.95590393972E-02
  12   6   2   53 I     3.33985820295E-01 -1.31300449579E-02 -6.95590393972E-02

  13   7   1    8 O     3.32267082327E-01 -3.32905146202E-01  1.32352166917E-01
  14   7   2    8 O    -3.32267082327E-01  1.67094853798E-01 -1.32352166917E-01

  15   8   1    8 O     5.27171869771E-02 -3.20840056047E-01 -7.08513021182E-02
  16   8   2    8 O    -5.27171869771E-02  1.79159943953E-01  7.08513021182E-02

  17   9   1    8 O     1.32612912553E-01 -2.87013903667E-01  2.10766353216E-01
  18   9   2    8 O    -1.32612912553E-01  2.12986096333E-01 -2.10766353216E-01

  19  10   1    8 O     3.67416986343E-01  2.12987789723E-01  2.89276977396E-01
  20  10   2    8 O    -3.67416986343E-01 -2.87012210277E-01 -2.89276977396E-01

  21  11   1    8 O     1.67807988108E-01  1.66965768681E-01  3.67726803077E-01
  22  11   2    8 O    -1.67807988108E-01 -3.33034231320E-01 -3.67726803077E-01

  23  12   1    8 O     4.47386524876E-01  1.78986507948E-01 -4.29119896169E-01
  24  12   2    8 O    -4.47386524876E-01 -3.21013492052E-01  4.29119896169E-01

  25  13   1    8 O    -3.15683867931E-01  2.11608101872E-01  4.08124150882E-01
  26  13   2    8 O     3.15683867931E-01 -2.88391898128E-01 -4.08124150882E-01

  27  14   1    8 O    -2.42612280315E-02  1.89222922160E-01 -4.20485485480E-01
  28  14   2    8 O     2.42612280315E-02 -3.10777077840E-01  4.20485485480E-01

  29  15   1    8 O    -1.41529744945E-01  1.53495177309E-01  2.91098856223E-01
  30  15   2    8 O     1.41529744945E-01 -3.46504822691E-01 -2.91098856223E-01

  31  16   1    8 O    -3.58462547365E-01 -3.46443579146E-01  2.08871084982E-01
  32  16   2    8 O     3.58462547365E-01  1.53556420854E-01 -2.08871084982E-01

  33  17   1    8 O    -1.84312240568E-01 -2.88303006094E-01  9.18591991795E-02
  34  17   2    8 O     1.84312240568E-01  2.11696993906E-01 -9.18591991795E-02

  35  18   1    8 O    -4.75704704913E-01 -3.10826848379E-01 -7.95630596733E-02
  36  18   2    8 O     4.75704704913E-01  1.89173151621E-01  7.95630596733E-02

 NUMBER OF SYMMETRY OPERATORS         :    2
 *******************************************************************************
 * GEOMETRY EDITING - INPUT COORDINATES ARE GIVEN IN ANGSTROM         
 *******************************************************************************

 GEOMETRY NOW FULLY CONSISTENT WITH THE GROUP
 INFORMATION **** NEW DEFAULT **** FINALRUN 4 FOR GEOMETRY OPTIMIZATIONS
 INFORMATION **** NEW DEFAULT **** OPTGEOM OPTIMIZES BOTH ATOMIC COORDINATES AND CELL PARAMETERS
 INFORMATION **** NEW DEFAULT **** TOL. ON ATOMIC DISP TO REDEFINE REF. GEOMETRY: 0.8 Angs
 INFORMATION **** NEW DEFAULT **** N POINTS TO REDEFINE REF. GEOMETRY: N OF OPT DEGS OF FREEDOM
 INFORMATION **** NEW DEFAULT **** TOL. ON ENERGY TO REDEFINE REF. GEOMETRY: 10**-3*(5*N. ATOMS)

 EXTERNAL STRESS APPLIED (HARTREE/BOHR^3):
 (1 HARTREE/BOHR^3 = 29421 GIGAPASCAL)
 EXTERNAL STRESS
 ORDER:   11   12    13 
          21   22    23 
          31   32    33 
  0.6797865E-04  0.0000000E+00  0.0000000E+00
  0.0000000E+00  0.6797865E-04  0.0000000E+00
  0.0000000E+00  0.0000000E+00  0.6797865E-04


 IMPORTANT INFORMATION:
 THE COORDINATE SYSTEM ADOPTED IN THE OPTIMIZATION IS NOT IN
 GENERAL HOMOGENEOUS UNITS. FOR THIS REASON THE GRADIENT AND 
 HESSIAN MATRIX IN TERMS OF THIS SYSTEM ARE GIVEN WITHOUT
 UNITS. FOR MORE DETAILS SEE THE MANUAL.

 *******************************************************************************
 COMBINED CELL/ATOM OPTIMIZATION CONTROL

 MAXIMUM GRADIENT COMPONENT   0.00045 MAXIMUM DISPLACEMENT COMPONENT     0.00180
 R.M.S. OF GRADIENT COMPONENT 0.00030 R.M.S. OF DISPLACEMENT COMPONENTS  0.00120
 THRESHOLD ON ENERGY CHANGE 0.100E-06 EXTRAPOLATING POLYNOMIAL ORDER           2
 MAXIMUM ALLOWED NUMBER OF STEPS   -1 SORTING OF ENERGY POINTS:               NO
 ANALYTICAL  GRADIENT                 HESSIAN UPDATING                      BFGS
 STEP SIZE NUMERICAL GRADIENT 0.00100
 INITIAL HESSIAN MATRIX: SCHLEGEL MODEL 2
 *******************************************************************************


 GCALCO - MAX INDICES DIRECT LATTICE VECTOR    11    24    11
 NO.OF VECTORS CREATED 6999 STARS 1824 RMAX   176.69305 BOHR

 GEOMETRY FOR WAVE FUNCTION - DIMENSIONALITY OF THE SYSTEM    3
 (NON PERIODIC DIRECTION: LATTICE PARAMETER FORMALLY SET TO 500)
 *******************************************************************************
 LATTICE PARAMETERS (ANGSTROMS AND DEGREES) - BOHR = 0.5291772083 ANGSTROM
 PRIMITIVE CELL - CENTRING CODE 1/0 VOLUME=   488.036235 - DENSITY  5.087 g/cm^3
         A              B              C           ALPHA      BETA       GAMMA 
    10.91548727     4.68788110    10.98995581    90.000000 119.792155  90.000000
 *******************************************************************************
 ATOMS IN THE ASYMMETRIC UNIT   18 - ATOMS IN THE UNIT CELL:   36
     ATOM                 X/A                 Y/B                 Z/C    
 *******************************************************************************
      1 T  12 MG   -4.903816837676E-01  4.273869170330E-01  2.556262784018E-01
      2 F  12 MG    4.903816837676E-01 -7.261308296700E-02 -2.556262784018E-01
      3 T  12 MG   -9.547639890218E-03 -7.248077675227E-02  2.443400395077E-01
      4 F  12 MG    9.547639890218E-03  4.275192232477E-01 -2.443400395077E-01
      5 T  53 I     1.661076262996E-01  4.807825817706E-01  9.414123125874E-02
      6 F  53 I    -1.661076262996E-01 -1.921741822940E-02 -9.414123125874E-02
      7 T  53 I     3.339596176091E-01 -1.935219919268E-02  4.058802209579E-01
      8 F  53 I    -3.339596176091E-01  4.806478008073E-01 -4.058802209579E-01
      9 T  53 I    -1.659770605746E-01 -1.314020605946E-02  4.304312004607E-01
     10 F  53 I     1.659770605746E-01  4.868597939405E-01 -4.304312004607E-01
     11 T  53 I    -3.339858202950E-01  4.868699550421E-01  6.955903939722E-02
     12 F  53 I     3.339858202950E-01 -1.313004495790E-02 -6.955903939722E-02
     13 T   8 O     3.322670823271E-01 -3.329051462015E-01  1.323521669174E-01
     14 F   8 O    -3.322670823271E-01  1.670948537985E-01 -1.323521669174E-01
     15 T   8 O     5.271718697705E-02 -3.208400560467E-01 -7.085130211821E-02
     16 F   8 O    -5.271718697705E-02  1.791599439533E-01  7.085130211821E-02
     17 T   8 O     1.326129125532E-01 -2.870139036671E-01  2.107663532160E-01
     18 F   8 O    -1.326129125532E-01  2.129860963329E-01 -2.107663532160E-01
     19 T   8 O     3.674169863429E-01  2.129877897235E-01  2.892769773961E-01
     20 F   8 O    -3.674169863429E-01 -2.870122102765E-01 -2.892769773961E-01
     21 T   8 O     1.678079881077E-01  1.669657686805E-01  3.677268030772E-01
     22 F   8 O    -1.678079881077E-01 -3.330342313195E-01 -3.677268030772E-01
     23 T   8 O     4.473865248759E-01  1.789865079484E-01 -4.291198961688E-01
     24 F   8 O    -4.473865248759E-01 -3.210134920516E-01  4.291198961688E-01
     25 T   8 O    -3.156838679305E-01  2.116081018715E-01  4.081241508822E-01
     26 F   8 O     3.156838679305E-01 -2.883918981285E-01 -4.081241508822E-01
     27 T   8 O    -2.426122803150E-02  1.892229221597E-01 -4.204854854803E-01
     28 F   8 O     2.426122803150E-02 -3.107770778403E-01  4.204854854803E-01
     29 T   8 O    -1.415297449447E-01  1.534951773087E-01  2.910988562231E-01
     30 F   8 O     1.415297449447E-01 -3.465048226913E-01 -2.910988562231E-01
     31 T   8 O    -3.584625473646E-01 -3.464435791456E-01  2.088710849815E-01
     32 F   8 O     3.584625473646E-01  1.535564208544E-01 -2.088710849815E-01
     33 T   8 O    -1.843122405684E-01 -2.883030060940E-01  9.185919917954E-02
     34 F   8 O     1.843122405684E-01  2.116969939060E-01 -9.185919917954E-02
     35 T   8 O    -4.757047049135E-01 -3.108268483786E-01 -7.956305967332E-02
     36 F   8 O     4.757047049135E-01  1.891731516214E-01  7.956305967332E-02

 T = ATOM BELONGING TO THE ASYMMETRIC UNIT

 ****    2 SYMMOPS - TRANSLATORS IN FRACTIONAL UNITS
 **** MATRICES AND TRANSLATORS IN THE CRYSTALLOGRAPHIC REFERENCE FRAME
   V INV                    ROTATION MATRICES                   TRANSLATORS
   1   1  1.00  0.00  0.00  0.00  1.00  0.00  0.00  0.00  1.00  0.00  0.00  0.00
   2   2 -1.00  0.00  0.00 -0.00  1.00 -0.00  0.00  0.00 -1.00  0.00  0.50  0.00

 DIRECT LATTICE VECTORS CARTESIAN COMPONENTS (ANGSTROM)
          X                    Y                    Z
   0.109154872700E+02   0.668380827317E-15   0.000000000000E+00
   0.000000000000E+00   0.468788110000E+01   0.000000000000E+00
  -0.546041604341E+01   0.672940710274E-15   0.953745172143E+01


 CARTESIAN COORDINATES - PRIMITIVE CELL
 *******************************************************************************
 *      ATOM          X(ANGSTROM)         Y(ANGSTROM)         Z(ANGSTROM)
 *******************************************************************************
    1    12 MG    4.166906411690E+00  2.003539050746E+00  2.438023288986E+00
    2    12 MG   -4.166906411690E+00 -3.404014992537E-01 -2.438023288986E+00
    3    12 MG   -1.438415413456E+00 -3.397812634503E-01  2.330381330417E+00
    4    12 MG    1.438415413456E+00  2.004159286550E+00 -2.330381330417E+00
    5    53 I     1.299095390811E+00  2.253851578292E+00  8.978674481261E-01
    6    53 I    -1.299095390811E+00 -9.008897170840E-02 -8.978674481261E-01
    7    53 I     1.429057084484E+00 -9.072080883880E-02  3.871063012069E+00
    8    53 I    -1.429057084484E+00  2.253219741161E+00 -3.871063012069E+00
    9    53 I     1.298362119018E+00 -6.159972363625E-02 -5.432234927638E+00
   10    53 I    -1.298362119018E+00  2.282340826364E+00  5.432234927638E+00
   11    53 I    -4.025439264480E+00  2.282388460400E+00  6.634159800400E-01
   12    53 I     4.025439264480E+00 -6.155208960029E-02 -6.634159800400E-01
   13     8 O     2.904159211765E+00 -1.560619742971E+00  1.262302402201E+00
   14     8 O    -2.904159211765E+00  7.833208070293E-01 -1.262302402201E+00
   15     8 O     9.623113701412E-01 -1.504060034864E+00 -6.757408733528E-01
   16     8 O    -9.623113701412E-01  8.398805151357E-01  6.757408733528E-01
   17     8 O     2.966625822997E-01 -1.345487054438E+00  2.010173918299E+00
   18     8 O    -2.966625822997E-01  9.984534955618E-01 -2.010173918299E+00
   19     8 O     2.430962788844E+00  9.984614339756E-01  2.758965206036E+00
   20     8 O    -2.430962788844E+00 -1.345479116024E+00 -2.758965206036E+00
   21     8 O    -1.762353771220E-01  7.827156713443E-01  3.507176631024E+00
   22     8 O     1.762353771220E-01 -1.561224878656E+00 -3.507176631024E+00
   23     8 O    -3.688872187360E+00  8.390674677663E-01 -4.092710292414E+00
   24     8 O     3.688872187360E+00 -1.504873082234E+00  4.092710292414E+00
   25     8 O    -2.139548595080E-01  9.919936213703E-01 -5.644987336041E+00
   26     8 O     2.139548595080E-01 -1.351946928630E+00  5.644987336041E+00
   27     8 O     2.031202565207E+00  8.870545604792E-01 -4.010360017330E+00
   28     8 O    -2.031202565207E+00 -1.456885989521E+00  4.010360017330E+00
   29     8 O    -3.134386994010E+00  7.195671406466E-01  2.776341287391E+00
   30     8 O     3.134386994010E+00 -1.624373409353E+00 -2.776341287391E+00
   31     8 O    -5.053316395968E+00 -1.624086306893E+00  1.992097889014E+00
   32     8 O     5.053316395968E+00  7.198542431070E-01 -1.992097889014E+00
   33     8 O    -2.513447360565E+00 -1.351530213341E+00  8.761026773440E-01
   34     8 O     2.513447360565E+00  9.924103366588E-01 -8.761026773440E-01
   35     8 O    -4.758101243259E+00 -1.457119307887E+00 -7.588288404435E-01
   36     8 O     4.758101243259E+00  8.868212421134E-01  7.588288404435E-01

 *******************************************************************************
 STARTING BASIS SET HANDLING 
 *******************************************************************************

 Loading internal basis set: POB-TZVP-REV2       

 Please cite in your publication:
 D. Vilela Oliveira, M. F. Peintinger, J. Laun, and T. Bredow, J. Comput. Chem., 40 (2019)                                                                                                                                                                       
 J. Laun, and T. Bredow, J. Comput. Chem., 42 (2021)                                                                                                                                                                                                             
 J. Laun, and T. Bredow, J. Comput. Chem., 43 (2022)                                                                                                                                                                                                             

 *******************************************************************************
 *** PSEUDOPOTENTIAL INFORMATION ***
 *******************************************************************************

 ATOMIC NUMBER  53, NUCLEAR CHARGE 25.000,                      PSEUDOPOTENTIAL
   TYPE       EXPONENT      COEFF.    N      EXPONENT      COEFF.    N
  P0 TMS    40.0333760   49.9896490   0    17.3005760  281.0065560   0
             8.8517200   61.4167390   0
  P1 TMS    15.7201410   67.4162390   0    15.2082220  134.8076960   0
             8.2941860   14.5665480   0     7.7539490   28.9684220   0
  P2 TMS    13.8177510   35.5387560   0    13.5878050   53.3397590   0
             6.9476300    9.7164660   0     6.9600990   14.9775000   0
  P3 TMS    18.5229500  -20.1766180   0    18.2510350  -26.0880770   0
             7.5579010   -0.2204340   0     7.5974040   -0.2216460   0

 *******************************************************************************
 LOCAL ATOMIC FUNCTIONS BASIS SET
 *******************************************************************************
   ATOM   X(AU)   Y(AU)   Z(AU)  N. TYPE  EXPONENT  S COEF   P COEF   D/F/G COEF
 *******************************************************************************
   1 MG   7.874   3.786   4.607
                                  1 S  
                                         3.144E+04 6.091E-04 0.000E+00 0.000E+00
                                         4.716E+03 4.707E-03 0.000E+00 0.000E+00
                                         1.073E+03 2.414E-02 0.000E+00 0.000E+00
                                         3.036E+02 9.363E-02 0.000E+00 0.000E+00
                                         9.863E+01 2.665E-01 0.000E+00 0.000E+00
                                         3.494E+01 4.789E-01 0.000E+00 0.000E+00
                                         1.286E+01 3.370E-01 0.000E+00 0.000E+00
                                  2 S  
                                         6.488E+01 1.918E-02 0.000E+00 0.000E+00
                                         1.973E+01 9.091E-02 0.000E+00 0.000E+00
                                         2.895E+00-3.956E-01 0.000E+00 0.000E+00
                                  3 S  
                                         1.196E+00 1.683E+00 0.000E+00 0.000E+00
                                         5.433E-01 5.214E-01 0.000E+00 0.000E+00
                                  4 S  
                                         8.347E-01 1.000E+00 0.000E+00 0.000E+00
                                  5 S  
                                         1.451E-01 1.000E+00 0.000E+00 0.000E+00
                           6-     8 P  
                                         1.799E+02 0.000E+00 5.380E-03 0.000E+00
                                         4.212E+01 0.000E+00 3.932E-02 0.000E+00
                                         1.312E+01 0.000E+00 1.574E-01 0.000E+00
                                         4.626E+00 0.000E+00 3.592E-01 0.000E+00
                                         1.670E+00 0.000E+00 4.553E-01 0.000E+00
                           9-    11 P  
                                         5.663E-01 0.000E+00 1.000E+00 0.000E+00
                          12-    14 P  
                                         1.881E-01 0.000E+00 1.000E+00 0.000E+00
                          15-    19 D  
                                         2.936E-01 0.000E+00 0.000E+00 1.000E+00
   2 MG  -7.874  -0.643  -4.607
   3 MG  -2.718  -0.642   4.404
   4 MG   2.718   3.787  -4.404
   5 I    2.455   4.259   1.697
                                 77 S  
                                         5.900E+03 2.419E-04 0.000E+00 0.000E+00
                                         8.985E+02 1.547E-03 0.000E+00 0.000E+00
                                         2.004E+02 4.284E-03 0.000E+00 0.000E+00
                                         3.142E+01-3.942E-02 0.000E+00 0.000E+00
                                         1.565E+01 9.609E-01 0.000E+00 0.000E+00
                                 78 S  
                                         1.182E+01 7.596E-01 0.000E+00 0.000E+00
                                         6.461E+00 4.250E-01 0.000E+00 0.000E+00
                                 79 S  
                                         2.221E+00 7.013E-01 0.000E+00 0.000E+00
                                         1.042E+00 2.987E-01 0.000E+00 0.000E+00
                                 80 S  
                                         2.321E-01 1.000E+00 0.000E+00 0.000E+00
                          81-    83 P  
                                         1.973E+02 0.000E+00 7.395E-04 0.000E+00
                                         2.006E+01 0.000E+00 6.617E-02 0.000E+00
                                         9.763E+00 0.000E+00-2.855E-01 0.000E+00
                          84-    86 P  
                                         1.298E+01 0.000E+00-4.910E-02 0.000E+00
                                         3.620E+00 0.000E+00 3.891E-01 0.000E+00
                                         2.023E+00 0.000E+00 6.561E-01 0.000E+00
                                         1.037E+00 0.000E+00 3.180E-01 0.000E+00
                          87-    89 P  
                                         3.996E-01 0.000E+00 1.000E+00 0.000E+00
                          90-    92 P  
                                         1.222E-01 0.000E+00 1.000E+00 0.000E+00
                          93-    97 D  
                                         1.191E+02 0.000E+00 0.000E+00 8.260E-04
                                         3.340E+01 0.000E+00 0.000E+00 6.838E-03
                                         1.781E+01 0.000E+00 0.000E+00-1.031E-02
                                         4.899E+00 0.000E+00 0.000E+00 2.267E-01
                                         2.452E+00 0.000E+00 0.000E+00 4.418E-01
                                         1.182E+00 0.000E+00 0.000E+00 3.678E-01
                          98-   102 D  
                                         1.004E+00 0.000E+00 0.000E+00 1.000E+00
                         103-   107 D  
                                         5.278E-01 0.000E+00 0.000E+00 1.000E+00
                         108-   112 D  
                                         2.010E-01 0.000E+00 0.000E+00 1.000E+00
   6 I   -2.455  -0.170  -1.697
   7 I    2.701  -0.171   7.315
   8 I   -2.701   4.258  -7.315
   9 I    2.454  -0.116 -10.265
  10 I   -2.454   4.313  10.265
  11 I   -7.607   4.313   1.254
  12 I    7.607  -0.116  -1.254
  13 O    5.488  -2.949   2.385
                                365 S  
                                         2.703E+04 2.173E-04 0.000E+00 0.000E+00
                                         4.052E+03 1.684E-03 0.000E+00 0.000E+00
                                         9.223E+02 8.740E-03 0.000E+00 0.000E+00
                                         2.612E+02 3.524E-02 0.000E+00 0.000E+00
                                         8.535E+01 1.115E-01 0.000E+00 0.000E+00
                                         3.104E+01 2.559E-01 0.000E+00 0.000E+00
                                366 S  
                                         1.226E+01 3.977E-01 0.000E+00 0.000E+00
                                         4.999E+00 2.463E-01 0.000E+00 0.000E+00
                                367 S  
                                         1.099E+00 1.000E+00 0.000E+00 0.000E+00
                                368 S  
                                         3.566E-01 1.000E+00 0.000E+00 0.000E+00
                         369-   371 P  
                                         6.327E+01 0.000E+00 6.069E-03 0.000E+00
                                         1.463E+01 0.000E+00 4.191E-02 0.000E+00
                                         4.450E+00 0.000E+00 1.615E-01 0.000E+00
                                         1.528E+00 0.000E+00 3.571E-01 0.000E+00
                         372-   374 P  
                                         5.490E-01 0.000E+00 1.000E+00 0.000E+00
                         375-   377 P  
                                         1.859E-01 0.000E+00 1.000E+00 0.000E+00
                         378-   382 D  
                                         4.535E-01 0.000E+00 0.000E+00 1.000E+00
  14 O   -5.488   1.480  -2.385
  15 O    1.819  -2.842  -1.277
  16 O   -1.819   1.587   1.277
  17 O    0.561  -2.543   3.799
  18 O   -0.561   1.887  -3.799
  19 O    4.594   1.887   5.214
  20 O   -4.594  -2.543  -5.214
  21 O   -0.333   1.479   6.628
  22 O    0.333  -2.950  -6.628
  23 O   -6.971   1.586  -7.734
  24 O    6.971  -2.844   7.734
  25 O   -0.404   1.875 -10.667
  26 O    0.404  -2.555  10.667
  27 O    3.838   1.676  -7.578
  28 O   -3.838  -2.753   7.578
  29 O   -5.923   1.360   5.247
  30 O    5.923  -3.070  -5.247
  31 O   -9.549  -3.069   3.765
  32 O    9.549   1.360  -3.765
  33 O   -4.750  -2.554   1.656
  34 O    4.750   1.875  -1.656
  35 O   -8.992  -2.754  -1.434
  36 O    8.992   1.676   1.434

 *******************************************************************************
 FINISHED BASIS SET HANDLING 
 *******************************************************************************

 INFORMATION **** SET_MPP **** PCRYSTAL CALCULATION
 INFORMATION **** READM2 **** NEW DEFAULT: FOCK/KS MATRIX MIXING SET TO 30 %
 INFORMATION **** READM2 **** NEW DEFAULT: FULL DIRECT SCF MODE
 INFORMATION **** READM2 **** NEW DEFAULT: COULOMB BIPOLAR BUFFER SET TO 32 Mb
 INFORMATION **** READM2 **** NEW DEFAULT: EXCHANGE BIPOLAR BUFFER SET TO 32 Mb

 *******************************************************************************
 NEW DEFAULT: DFT INTEGRATION GRID INCREASED TO XLGRID
 NEW DEFAULT: DIIS ACCELERATOR ACTIVE
 USE KEYWORD NODIIS TO TURN IT OFF
 *******************************************************************************

 INFORMATION **** DFTD3_INPUT **** PERFORM LATEST DISPERSION CORRECTION DFT-D3(BJ) WITH AUTOMATIC PARAMETER SETUP
 PLEASE CITE:
 (1) DFT-D3 Reference
  S. Grimme, J. Antony, S. Ehrlich, and H. Krieg, J. Chem. Phys. 132 (2010), 154104
 (2) BJ-Damping Reference
  S. Grimme, S. Ehrlich, and L. Goerigk, J. Comput. Chem. 32 (2011), 1456-1465
 (3) General DFT-D Review
  S. Grimme, A. Hansen, J. G. Brandenburg, and C. Bannwarth,
  Chem. Rev. 116 (2016), 5105-5154

 INFORMATION **** TOLINTEG **** COULOMB AND EXCHANGE SERIES TOLERANCES MODIFIED
 INFORMATION **** TOLDEE **** SCF TOL ON TOTAL ENERGY SET TO           9
 *******************************************************************************
 N. OF ATOMS PER CELL        36  COULOMB OVERLAP TOL         (T1) 10**   -8
 NUMBER OF SHELLS           324  COULOMB PENETRATION TOL     (T2) 10**   -8
 NUMBER OF AO               796  EXCHANGE OVERLAP TOL        (T3) 10**   -8
 N. OF ELECTRONS PER CELL   440  EXCHANGE PSEUDO OVP (F(G))  (T4) 10**   -8
 CORE ELECTRONS PER CELL     88  EXCHANGE PSEUDO OVP (P(G))  (T5) 10**  -27
 N. OF SYMMETRY OPERATORS     2  POLE ORDER IN MONO ZONE                  4
 *******************************************************************************
 TYPE OF CALCULATION :  RESTRICTED CLOSED SHELL
 KOHN-SHAM HAMILTONIAN

 (EXCHANGE)[CORRELATION] FUNCTIONAL:(PERDEW-BURKE-ERNZERHOF)[PERDEW-BURKE-ERNZERHOF]


 HYBRID EXCHANGE - PERCENTAGE OF FOCK EXCHANGE    25.0000
 CORE  PSEUDO POTENTIAL         TOL. ON PSEUDO              (TP) 10**- 6

 CAPPA:IS1  6;IS2  6;IS3  6; K PTS MONK NET  80; SYMMOPS:K SPACE   4;G SPACE   2

 *******************************************************************************
 MAX NUMBER OF SCF CYCLES      50  CONVERGENCE ON DELTAP        10**-19
 WEIGHT OF F(I) IN F(I+1)      30% CONVERGENCE ON ENERGY        10**- 9
 SHRINK. FACT.(MONKH.)    6  6  6  NUMBER OF K POINTS IN THE IBZ     80
 SHRINKING FACTOR(GILAT NET)    6  NUMBER OF K POINTS(GILAT NET)     80
 *******************************************************************************
 *** K POINTS COORDINATES (OBLIQUE COORDINATES IN UNITS OF IS =  6)
   1-R(  0  0  0)   2-C(  1  0  0)   3-C(  2  0  0)   4-R(  3  0  0)
   5-C(  0  1  0)   6-C(  1  1  0)   7-C(  2  1  0)   8-C(  3  1  0)
   9-C(  0  2  0)  10-C(  1  2  0)  11-C(  2  2  0)  12-C(  3  2  0)
  13-R(  0  3  0)  14-C(  1  3  0)  15-C(  2  3  0)  16-R(  3  3  0)
  17-C(  0  0  1)  18-C(  1  0  1)  19-C(  2  0  1)  20-C(  3  0  1)
  21-C(  4  0  1)  22-C(  5  0  1)  23-C(  0  1  1)  24-C(  1  1  1)
  25-C(  2  1  1)  26-C(  3  1  1)  27-C(  4  1  1)  28-C(  5  1  1)
  29-C(  0  2  1)  30-C(  1  2  1)  31-C(  2  2  1)  32-C(  3  2  1)
  33-C(  4  2  1)  34-C(  5  2  1)  35-C(  0  3  1)  36-C(  1  3  1)
  37-C(  2  3  1)  38-C(  3  3  1)  39-C(  4  3  1)  40-C(  5  3  1)
  41-C(  0  0  2)  42-C(  1  0  2)  43-C(  2  0  2)  44-C(  3  0  2)
  45-C(  4  0  2)  46-C(  5  0  2)  47-C(  0  1  2)  48-C(  1  1  2)
  49-C(  2  1  2)  50-C(  3  1  2)  51-C(  4  1  2)  52-C(  5  1  2)
  53-C(  0  2  2)  54-C(  1  2  2)  55-C(  2  2  2)  56-C(  3  2  2)
  57-C(  4  2  2)  58-C(  5  2  2)  59-C(  0  3  2)  60-C(  1  3  2)
  61-C(  2  3  2)  62-C(  3  3  2)  63-C(  4  3  2)  64-C(  5  3  2)
  65-R(  0  0  3)  66-C(  1  0  3)  67-C(  2  0  3)  68-R(  3  0  3)
  69-C(  0  1  3)  70-C(  1  1  3)  71-C(  2  1  3)  72-C(  3  1  3)
  73-C(  0  2  3)  74-C(  1  2  3)  75-C(  2  2  3)  76-C(  3  2  3)
  77-R(  0  3  3)  78-C(  1  3  3)  79-C(  2  3  3)  80-R(  3  3  3)

 DIRECT LATTICE VECTORS COMPON. (A.U.)     RECIP. LATTICE VECTORS COMPON. (A.U.) 
        X            Y            Z              X            Y            Z
   20.6272816    0.0000000    0.0000000      0.3046056   -0.0000000    0.1743939
    0.0000000    8.8588114    0.0000000     -0.0000000    0.7092583   -0.0000000
  -10.3186909    0.0000000   18.0231718      0.0000000    0.0000000    0.3486171

 DISK SPACE FOR EIGENVECTORS (FTN 10)    96309632 REALS

 SYMMETRY ADAPTION OF THE BLOCH FUNCTIONS ENABLED
 TTTTTTTTTTTTTTTTTTTTTTTTTTTTTT gordsh1     TELAPSE        3.74 TCPU        2.04

 MATRIX SIZE: P(G) 4272788, F(G)  336920, P(G) IRR 1078454, F(G) IRR  170292
 MAX G-VECTOR INDEX FOR 1- AND 2-ELECTRON INTEGRALS 159

 TTTTTTTTTTTTTTTTTTTTTTTTTTTTTT INPUT       TELAPSE        3.77 TCPU        2.07

 NEIGHBORS OF THE NON-EQUIVALENT ATOMS

 N = NUMBER OF NEIGHBORS AT DISTANCE R
    ATOM  N     R/ANG      R/AU   NEIGHBORS (ATOM LABELS AND CELL INDICES)
   1 MG   1     2.0314     3.8388   19 O    0 0 0
   1 MG   1     2.0486     3.8714   31 O    1 1 0
   1 MG   1     2.0590     3.8910   13 O    0 1 0
   1 MG   1     2.0718     3.9152   25 O    1 0 1
   1 MG   1     2.0875     3.9448   24 O    0 1 0
   1 MG   1     2.1015     3.9712   36 O    0 0 0

   3 MG   1     2.0309     3.8378   17 O    0 0 0
   3 MG   1     2.0488     3.8716   29 O    0 0 0
   3 MG   1     2.0586     3.8902   21 O    0 0 0
   3 MG   1     2.0723     3.9160   33 O    0 0 0
   3 MG   1     2.0871     3.9441   16 O    0 0 0
   3 MG   1     2.1028     3.9737   28 O    0 0 0

   5 I    1     1.8512     3.4983   17 O    0 1 0
   5 I    1     1.8586     3.5123   15 O    0 1 0
   5 I    1     1.8633     3.5211   13 O    0 1 0
   5 I    1     2.4926     4.7103   34 O    0 0 0
   5 I    1     2.5141     4.7510   19 O    0 0 0
   5 I    1     2.6763     5.0575   16 O    0 0 0

   7 I    1     1.8512     3.4982   19 O    0 0 0
   7 I    1     1.8587     3.5124   23 O    1 0 1
   7 I    1     1.8634     3.5213   21 O    0 0 0
   7 I    1     2.4928     4.7107   26 O    0 0 0
   7 I    1     2.5139     4.7506   17 O    0 0 0
   7 I    1     2.6750     5.0551   24 O    0 0 0

   9 I    1     1.8526     3.5010   29 O    0 0-1
   9 I    1     1.8554     3.5062   25 O    0 0 0
   9 I    1     1.8598     3.5144   27 O    0 0 0
   9 I    1     2.5488     4.8165   28 O    0 0-1
   9 I    1     2.6859     5.0756   22 O    0 0 0
   9 I    1     2.7751     5.2441   31 O    0 0-1

  11 I    1     1.8527     3.5011   31 O    0 1 0
  11 I    1     1.8553     3.5060   33 O    0 1 0
  11 I    1     1.8598     3.5146   35 O    0 1 0
  11 I    1     2.5499     4.8186   36 O   -1 0 0
  11 I    1     2.6857     5.0752   14 O    0 0 0
  11 I    1     2.7750     5.2441   29 O    0 0 0

  13 O    1     1.8633     3.5211    5 I    0-1 0
  13 O    1     2.0590     3.8910    1 MG   0-1 0
  13 O    1     2.6449     4.9982   19 O    0-1 0
  13 O    1     2.6857     5.0752   12 I    0 0 0
  13 O    1     2.7211     5.1422   17 O    0 0 0
  13 O    1     2.7441     5.1856   15 O    0 0 0

  15 O    1     1.8586     3.5123    5 I    0-1 0
  15 O    1     2.0871     3.9441    4 MG   0-1 0
  15 O    1     2.6763     5.0575    6 I    0 0 0
  15 O    1     2.6923     5.0877   34 O    0-1 0
  15 O    1     2.7441     5.1856   13 O    0 0 0
  15 O    1     2.7717     5.2378   17 O    0 0 0

  17 O    1     1.8512     3.4983    5 I    0-1 0
  17 O    1     2.0309     3.8378    3 MG   0 0 0
  17 O    1     2.5139     4.7506    7 I    0 0 0
  17 O    1     2.6446     4.9976   21 O    0 0 0
  17 O    1     2.7211     5.1422   13 O    0 0 0
  17 O    1     2.7717     5.2378   15 O    0 0 0

  19 O    1     1.8512     3.4982    7 I    0 0 0
  19 O    1     2.0314     3.8388    1 MG   0 0 0
  19 O    1     2.5141     4.7510    5 I    0 0 0
  19 O    1     2.6449     4.9982   13 O    0 1 0
  19 O    1     2.7210     5.1419   21 O    0 0 0
  19 O    1     2.7714     5.2372   23 O    1 0 1

  21 O    1     1.8634     3.5213    7 I    0 0 0
  21 O    1     2.0586     3.8902    3 MG   0 0 0
  21 O    1     2.6446     4.9976   17 O    0 0 0
  21 O    1     2.6859     5.0756   10 I    0 0 0
  21 O    1     2.7210     5.1419   19 O    0 0 0
  21 O    1     2.7442     5.1857   23 O    1 0 1

  23 O    1     1.8587     3.5124    7 I   -1 0-1
  23 O    1     2.0875     3.9448    2 MG   0 0 0
  23 O    1     2.6750     5.0551    8 I    0 0 0
  23 O    1     2.6926     5.0883   26 O   -1 0-1
  23 O    1     2.7442     5.1857   21 O   -1 0-1
  23 O    1     2.7714     5.2372   19 O   -1 0-1

  25 O    1     1.8554     3.5062    9 I    0 0 0
  25 O    1     2.0718     3.9152    1 MG  -1 0-1
  25 O    1     2.4928     4.7107    8 I    0 0 0
  25 O    1     2.6926     5.0883   24 O   -1 1-1
  25 O    1     2.7792     5.2519   27 O    0 0 0
  25 O    1     2.7877     5.2681   29 O    0 0-1

  27 O    1     1.8598     3.5144    9 I    0 0 0
  27 O    1     2.1028     3.9737    4 MG   0 0 0
  27 O    1     2.5488     4.8165   10 I    0 0-1
  27 O    1     2.7344     5.1672   30 O    0 1 0
  27 O    1     2.7716     5.2375   29 O    0 0-1
  27 O    1     2.7792     5.2519   25 O    0 0 0

  29 O    1     1.8526     3.5010    9 I    0 0 1
  29 O    1     2.0488     3.8716    3 MG   0 0 0
  29 O    1     2.7344     5.1672   28 O    0 0 0
  29 O    1     2.7716     5.2375   27 O    0 0 1
  29 O    1     2.7750     5.2441   11 I    0 0 0
  29 O    1     2.7877     5.2681   25 O    0 0 1

  31 O    1     1.8527     3.5011   11 I    0-1 0
  31 O    1     2.0486     3.8714    1 MG  -1-1 0
  31 O    1     2.7348     5.1680   36 O   -1-1 0
  31 O    1     2.7718     5.2379   35 O    0 0 0
  31 O    1     2.7751     5.2441    9 I    0 0 1
  31 O    1     2.7876     5.2678   33 O    0 0 0

  33 O    1     1.8553     3.5060   11 I    0-1 0
  33 O    1     2.0723     3.9160    3 MG   0 0 0
  33 O    1     2.4926     4.7103    6 I    0 0 0
  33 O    1     2.6923     5.0877   16 O    0 0 0
  33 O    1     2.7790     5.2515   35 O    0 0 0
  33 O    1     2.7876     5.2678   31 O    0 0 0

  35 O    1     1.8598     3.5146   11 I    0-1 0
  35 O    1     2.1015     3.9712    2 MG   0 0 0
  35 O    1     2.5499     4.8186   12 I   -1 0 0
  35 O    1     2.7348     5.1680   32 O   -1 0 0
  35 O    1     2.7718     5.2379   31 O    0 0 0
  35 O    1     2.7790     5.2515   33 O    0 0 0


 SYMMETRY ALLOWED ELASTIC DISTORTION 1
  0.5773503  0.0000000  0.0000000
  0.0000000  0.5773503  0.0000000
  0.0000000  0.0000000  0.5773503

 SYMMETRY ALLOWED ELASTIC DISTORTION 2
  0.8164966  0.0000000  0.0000000
  0.0000000 -0.4082483  0.0000000
  0.0000000  0.0000000 -0.4082483

 SYMMETRY ALLOWED ELASTIC DISTORTION 3
  0.0000000  0.0000000  0.0000000
  0.0000000  0.7071068  0.0000000
  0.0000000  0.0000000 -0.7071068

 SYMMETRY ALLOWED ELASTIC DISTORTION 4
 -0.0000000  0.0000000  0.7071068
  0.0000000 -0.0000000  0.0000000
  0.7071068  0.0000000  0.0000000

 SYMMETRY ALLOWED INTERNAL DEGREE(S) OF FREEDOM:  53
 TTTTTTTTTTTTTTTTTTTTTTTTTTTTTT SYMM        TELAPSE        3.83 TCPU        2.11
 TTTTTTTTTTTTTTTTTTTTTTTTTTTTTT INT_SCREEN  TELAPSE        3.85 TCPU        2.14

 *******************************************************************************
 *                             OPTIMIZATION STARTS                             *
 *******************************************************************************
 RECLASIFICATION OF INDICES FOR INTEGRAL CALC ACCORDING TO DIFFERENT CRITERIA:
           FIXDELTE                  FIXDELTX              FIXDELTN
          0.10000000               0.80000000                 57
 DEFAULT MAX NUM OF POINTS  114
 *******************************************************************************

 *******************************************************************************
 COORDINATE AND CELL OPTIMIZATION - POINT    1
 WARNING **** EXCBUF **** EXCH. BIPO BUFFER TOO SMALL - TO AVOID I/O SET EXCHSIZE =     6192702

 DFT PARAMETERS

     ATOM       ELECTRONS   NET CHARGE   R(ANGSTROM)
   1  12  MG     12.0000      0.0000     1.60000000
   5  53  I      25.0000      0.0000     1.33000000
  13   8  O       8.0000      0.0000     0.74000000

 SIZE OF GRID=    2836120
 TTTTTTTTTTTTTTTTTTTTTTTTTTTTTT MAKE_GRID2  TELAPSE       19.54 TCPU       17.75
 BECKE WEIGHT FUNCTION
 RADSAFE =     2.00
 TOLERANCES - DENSITY:10**- 6; POTENTIAL:10**- 9; GRID WGT:10**-14

 RADIAL INTEGRATION  - INTERVALS (POINTS,UPPER LIMIT):            1(300,  4.0*R)

 ANGULAR INTEGRATION - INTERVALS (ACCURACY LEVEL [N. POINTS] UPPER LIMIT):
  1(  6[ 146]   0.2)  2( 11[ 302]   0.5)  3( 14[ 590]   0.9)  4( 18[1454]   3.5)
  5( 14[ 590]9999.0)
 TTTTTTTTTTTTTTTTTTTTTTTTTTTTTT INT_CALC    TELAPSE       19.58 TCPU       17.78

 *******************************************************************************
 Mg(IO3)2 P21                                                                    
 CRYSTAL - SCF - TYPE OF CALCULATION :  RESTRICTED CLOSED SHELL
 *******************************************************************************

 CAPPA:IS1  6;IS2  6;IS3  6; K PTS MONK NET  80; SYMMOPS:K SPACE   4;G SPACE   2

 TTTTTTTTTTTTTTTTTTTTTTTTTTTTTT SDIK        TELAPSE       20.54 TCPU       18.74

 AAAAAAAAAAAAAAAAAAAAAAAAAAAAAAAAAAAAAAAAAAAAAAAAAAAAAAAAAAAAAAAAAAAAAAAAAAAAAAA
         ATOMIC WAVEFUNCTION(S)


 NUCLEAR CHARGE 12.0  SYMMETRY SPECIES            S    P
 N. ELECTRONS   12.0  NUMBER OF PRIMITIVE GTOS   14    7
                      NUMBER OF CONTRACTED GTOS   5    3
                      NUMBER OF CLOSED SHELLS     3    1
                      OPEN SHELL OCCUPATION       0    0

  ZNUC  SCFIT    TOTAL HF ENERGY   KINETIC ENERGY   VIRIAL THEOREM             ACCURACY
  12.0     8    -1.994903813E+02  2.003482110E+02 -1.995718306E+00  4.2E-06

 NUCLEAR CHARGE 25.0  SYMMETRY SPECIES            S    P    D
 N. ELECTRONS   25.0  NUMBER OF PRIMITIVE GTOS   10    9    9
                      NUMBER OF CONTRACTED GTOS   4    4    4
                      NUMBER OF CLOSED SHELLS     2    1    1
                      OPEN SHELL OCCUPATION       0    5    0

  ZNUC  SCFIT    TOTAL HF ENERGY   KINETIC ENERGY   VIRIAL THEOREM             ACCURACY
  25.0    10    -2.945672222E+02  1.114753143E+02 -3.642443522E+00  1.4E-06

 NUCLEAR CHARGE  8.0  SYMMETRY SPECIES            S    P
 N. ELECTRONS    8.0  NUMBER OF PRIMITIVE GTOS   10    6
                      NUMBER OF CONTRACTED GTOS   4    3
                      NUMBER OF CLOSED SHELLS     2    0
                      OPEN SHELL OCCUPATION       0    4

  ZNUC  SCFIT    TOTAL HF ENERGY   KINETIC ENERGY   VIRIAL THEOREM             ACCURACY
   8.0    13    -7.480300557E+01  7.484348361E+01 -1.999459164E+00  4.9E-06

 AAAAAAAAAAAAAAAAAAAAAAAAAAAAAAAAAAAAAAAAAAAAAAAAAAAAAAAAAAAAAAAAAAAAAAAAAAAAAAA

 CHARGE NORMALIZATION FACTOR   1.00000000
 TOTAL ATOMIC CHARGES:
  12.0000000  12.0000000  12.0000000  12.0000000  25.0000000  25.0000000
  25.0000000  25.0000000  25.0000000  25.0000000  25.0000000  25.0000000
   8.0000000   8.0000000   8.0000000   8.0000000   8.0000000   8.0000000
   8.0000000   8.0000000   8.0000000   8.0000000   8.0000000   8.0000000
   8.0000000   8.0000000   8.0000000   8.0000000   8.0000000   8.0000000
   8.0000000   8.0000000   8.0000000   8.0000000   8.0000000   8.0000000
 TTTTTTTTTTTTTTTTTTTTTTTTTTTTTT MOQGAD      TELAPSE       20.59 TCPU       18.79
 TTTTTTTTTTTTTTTTTTTTTTTTTTTTTT SHELLXN     TELAPSE       38.39 TCPU       36.53
 TTTTTTTTTTTTTTTTTTTTTTTTTTTTTT MONMO3      TELAPSE       38.71 TCPU       36.84
 NUMERICALLY INTEGRATED DENSITY    439.9999832063
 TTTTTTTTTTTTTTTTTTTTTTTTTTTTTT NUMDFT      TELAPSE       42.44 TCPU       40.57
 CYC   0 ETOT(AU) -4.973739038186E+03 DETOT -4.97E+03 tst  0.00E+00 PX  1.00E+00
 TTTTTTTTTTTTTTTTTTTTTTTTTTTTTT DIIS        TELAPSE       42.50 TCPU       40.63
 TTTTTTTTTTTTTTTTTTTTTTTTTTTTTT FDIK        TELAPSE       52.19 TCPU       50.30
 INSULATING STATE
 TOP OF VALENCE BANDS -    BAND    220; K   68; EIG -2.9128609E-01 AU
 TOP OF VALENCE BANDS -    BAND    220; K    1; EIG -2.9696999E-01 AU
 BOTTOM OF VIRTUAL BANDS - BAND    221; K   43; EIG -1.1330621E-01 AU
 INDIRECT ENERGY BAND GAP:   4.8431 eV
 BOTTOM OF VIRTUAL BANDS - BAND    221; K    1; EIG -1.0462770E-01 AU
 TTTTTTTTTTTTTTTTTTTTTTTTTTTTTT PDIG        TELAPSE       52.71 TCPU       50.81
 CHARGE NORMALIZATION FACTOR   1.00000000
 TOTAL ATOMIC CHARGES:
  10.6577523  10.6577523  10.6576547  10.6576547  22.2449040  22.2449040
  22.2449472  22.2449472  22.2192641  22.2192641  22.2192286  22.2192286
   9.1947187   9.1947187   9.1969871   9.1969871   9.0887382   9.0887382
   9.0890014   9.0890014   9.1948044   9.1948044   9.1970128   9.1970128
   9.0969157   9.0969157   9.1171143   9.1171143   9.1835630   9.1835630
   9.1835414   9.1835414   9.0968996   9.0968996   9.1169524   9.1169524
 TTTTTTTTTTTTTTTTTTTTTTTTTTTTTT MOQGAD      TELAPSE       52.72 TCPU       50.82
 TTTTTTTTTTTTTTTTTTTTTTTTTTTTTT SHELLXN     TELAPSE       71.43 TCPU       69.50
 TTTTTTTTTTTTTTTTTTTTTTTTTTTTTT MONMO3      TELAPSE       71.74 TCPU       69.81
 NUMERICALLY INTEGRATED DENSITY    439.9999773413
 TTTTTTTTTTTTTTTTTTTTTTTTTTTTTT NUMDFT      TELAPSE       75.36 TCPU       73.42
 CYC   1 ETOT(AU) -4.966792523679E+03 DETOT  6.95E+00 tst  0.00E+00 PX  1.00E+00
 TTTTTTTTTTTTTTTTTTTTTTTTTTTTTT DIIS        TELAPSE       75.42 TCPU       73.48
 DIIS TEST: 0.11167E+02 AT SCF   CYCLE   1 - MIX   30 %
 TTTTTTTTTTTTTTTTTTTTTTTTTTTTTT FDIK        TELAPSE       77.41 TCPU       75.47
 INSULATING STATE
 TOP OF VALENCE BANDS -    BAND    220; K   20; EIG -1.4059293E-01 AU
 TOP OF VALENCE BANDS -    BAND    220; K    1; EIG -1.4954671E-01 AU
 BOTTOM OF VIRTUAL BANDS - BAND    221; K   43; EIG -3.0771307E-02 AU
 INDIRECT ENERGY BAND GAP:   2.9884 eV
 BOTTOM OF VIRTUAL BANDS - BAND    221; K    1; EIG -1.9698327E-02 AU
 TTTTTTTTTTTTTTTTTTTTTTTTTTTTTT PDIG        TELAPSE       77.94 TCPU       75.99
 CHARGE NORMALIZATION FACTOR   1.00000000
 TOTAL ATOMIC CHARGES:
  10.7858983  10.7858983  10.7859194  10.7859194  24.1275328  24.1275328
  24.1271251  24.1271251  24.0444075  24.0444075  24.0448349  24.0448349
   8.5473164   8.5473164   8.5154478   8.5154478   8.4911489   8.4911489
   8.4915293   8.4915293   8.5477336   8.5477336   8.5155224   8.5155224
   8.4897087   8.4897087   8.5074707   8.5074707   8.4907706   8.4907706
   8.4906393   8.4906393   8.4898286   8.4898286   8.5071656   8.5071656
 TTTTTTTTTTTTTTTTTTTTTTTTTTTTTT MOQGAD      TELAPSE       77.95 TCPU       76.00
 TTTTTTTTTTTTTTTTTTTTTTTTTTTTTT SHELLXN     TELAPSE       96.61 TCPU       94.65
 TTTTTTTTTTTTTTTTTTTTTTTTTTTTTT MONMO3      TELAPSE       96.91 TCPU       94.95
 NUMERICALLY INTEGRATED DENSITY    439.9999734303
 TTTTTTTTTTTTTTTTTTTTTTTTTTTTTT NUMDFT      TELAPSE      100.47 TCPU       98.48
 CYC   2 ETOT(AU) -4.967018022832E+03 DETOT -2.25E-01 tst  1.83E-02 PX  6.30E-01
 TTTTTTTTTTTTTTTTTTTTTTTTTTTTTT DIIS        TELAPSE      100.52 TCPU       98.53
 DIIS TEST: 0.10107E+02 AT SCF   CYCLE   2 - DIIS ACTIVE - HISTORY:     2 CYCLES
 TTTTTTTTTTTTTTTTTTTTTTTTTTTTTT FDIK        TELAPSE      102.47 TCPU      100.45
 INSULATING STATE
 TOP OF VALENCE BANDS -    BAND    220; K   19; EIG -2.1079556E-01 AU
 TOP OF VALENCE BANDS -    BAND    220; K    1; EIG -2.1513375E-01 AU
 BOTTOM OF VIRTUAL BANDS - BAND    221; K   43; EIG -3.8040735E-02 AU
 INDIRECT ENERGY BAND GAP:   4.7009 eV
 BOTTOM OF VIRTUAL BANDS - BAND    221; K    1; EIG -2.8746308E-02 AU
 TTTTTTTTTTTTTTTTTTTTTTTTTTTTTT PDIG        TELAPSE      102.99 TCPU      100.97
 CHARGE NORMALIZATION FACTOR   1.00000000
 TOTAL ATOMIC CHARGES:
  10.7872891  10.7872891  10.7871719  10.7871719  23.1189368  23.1189368
  23.1187299  23.1187299  23.1406600  23.1406600  23.1408689  23.1408689
   8.8975197   8.8975197   8.9128473   8.9128473   8.7186889   8.7186889
   8.7188556   8.7188556   8.8974623   8.8974623   8.9129327   8.9129327
   8.7416300   8.7416300   8.7778540   8.7778540   8.9047092   8.9047092
   8.9045687   8.9045687   8.7417729   8.7417729   8.7775021   8.7775021
 TTTTTTTTTTTTTTTTTTTTTTTTTTTTTT MOQGAD      TELAPSE      103.00 TCPU      100.98
 TTTTTTTTTTTTTTTTTTTTTTTTTTTTTT SHELLXN     TELAPSE      121.73 TCPU      119.70
 TTTTTTTTTTTTTTTTTTTTTTTTTTTTTT MONMO3      TELAPSE      122.04 TCPU      120.00
 NUMERICALLY INTEGRATED DENSITY    439.9999758886
 TTTTTTTTTTTTTTTTTTTTTTTTTTTTTT NUMDFT      TELAPSE      125.73 TCPU      123.68
 CYC   3 ETOT(AU) -4.968785193258E+03 DETOT -1.77E+00 tst  4.71E-03 PX  1.57E-01
 TTTTTTTTTTTTTTTTTTTTTTTTTTTTTT DIIS        TELAPSE      125.79 TCPU      123.74
 DIIS TEST: 0.11954E+00 AT SCF   CYCLE   3 - DIIS ACTIVE - HISTORY:     3 CYCLES
 TTTTTTTTTTTTTTTTTTTTTTTTTTTTTT FDIK        TELAPSE      127.61 TCPU      125.56
 INSULATING STATE
 TOP OF VALENCE BANDS -    BAND    220; K   68; EIG -2.1317168E-01 AU
 TOP OF VALENCE BANDS -    BAND    220; K    1; EIG -2.1942183E-01 AU
 BOTTOM OF VIRTUAL BANDS - BAND    221; K   43; EIG -3.3193788E-02 AU
 INDIRECT ENERGY BAND GAP:   4.8974 eV
 BOTTOM OF VIRTUAL BANDS - BAND    221; K    1; EIG -2.3651270E-02 AU
 TTTTTTTTTTTTTTTTTTTTTTTTTTTTTT PDIG        TELAPSE      128.13 TCPU      126.05
 CHARGE NORMALIZATION FACTOR   1.00000000
 TOTAL ATOMIC CHARGES:
  10.7654712  10.7654712  10.7653607  10.7653607  23.1616121  23.1616121
  23.1614515  23.1614515  23.1164308  23.1164308  23.1166849  23.1166849
   8.8716092   8.8716092   8.8499903   8.8499903   8.8018853   8.8018853
   8.8020580   8.8020580   8.8716943   8.8716943   8.8499842   8.8499842
   8.8005266   8.8005266   8.8135364   8.8135364   8.8190485   8.8190485
   8.8189255   8.8189255   8.8004723   8.8004723   8.8132586   8.8132586
 TTTTTTTTTTTTTTTTTTTTTTTTTTTTTT MOQGAD      TELAPSE      128.14 TCPU      126.06
 TTTTTTTTTTTTTTTTTTTTTTTTTTTTTT SHELLXN     TELAPSE      146.86 TCPU      144.78
 TTTTTTTTTTTTTTTTTTTTTTTTTTTTTT MONMO3      TELAPSE      147.17 TCPU      145.08
 NUMERICALLY INTEGRATED DENSITY    439.9999772675
 TTTTTTTTTTTTTTTTTTTTTTTTTTTTTT NUMDFT      TELAPSE      150.82 TCPU      148.73
 CYC   4 ETOT(AU) -4.968792880216E+03 DETOT -7.69E-03 tst  1.46E-04 PX  2.34E-02
 TTTTTTTTTTTTTTTTTTTTTTTTTTTTTT DIIS        TELAPSE      150.88 TCPU      148.79
 DIIS TEST: 0.85844E-01 AT SCF   CYCLE   4 - DIIS ACTIVE - HISTORY:     4 CYCLES
 TTTTTTTTTTTTTTTTTTTTTTTTTTTTTT FDIK        TELAPSE      152.61 TCPU      150.51
 INSULATING STATE
 TOP OF VALENCE BANDS -    BAND    220; K   68; EIG -2.1151441E-01 AU
 TOP OF VALENCE BANDS -    BAND    220; K    1; EIG -2.1794877E-01 AU
 BOTTOM OF VIRTUAL BANDS - BAND    221; K   43; EIG -3.1277859E-02 AU
 INDIRECT ENERGY BAND GAP:   4.9045 eV
 BOTTOM OF VIRTUAL BANDS - BAND    221; K    1; EIG -2.1699314E-02 AU
 TTTTTTTTTTTTTTTTTTTTTTTTTTTTTT PDIG        TELAPSE      153.14 TCPU      151.03
 CHARGE NORMALIZATION FACTOR   1.00000000
 TOTAL ATOMIC CHARGES:
  10.7581084  10.7581084  10.7580440  10.7580440  23.1594545  23.1594545
  23.1592442  23.1592442  23.1302778  23.1302778  23.1305289  23.1305289
   8.8820334   8.8820334   8.8814733   8.8814733   8.7594406   8.7594406
   8.7596393   8.7596393   8.8821327   8.8821327   8.8814512   8.8814512
   8.7707449   8.7707449   8.7961571   8.7961571   8.8624041   8.8624041
   8.8622659   8.8622659   8.7707042   8.7707042   8.7958954   8.7958954
 TTTTTTTTTTTTTTTTTTTTTTTTTTTTTT MOQGAD      TELAPSE      153.15 TCPU      151.05
 TTTTTTTTTTTTTTTTTTTTTTTTTTTTTT SHELLXN     TELAPSE      171.88 TCPU      169.74
 TTTTTTTTTTTTTTTTTTTTTTTTTTTTTT MONMO3      TELAPSE      172.18 TCPU      170.05
 NUMERICALLY INTEGRATED DENSITY    439.9999763183
 TTTTTTTTTTTTTTTTTTTTTTTTTTTTTT NUMDFT      TELAPSE      175.72 TCPU      173.58
 CYC   5 ETOT(AU) -4.968807144978E+03 DETOT -1.43E-02 tst  3.56E-05 PX  8.21E-03
 TTTTTTTTTTTTTTTTTTTTTTTTTTTTTT DIIS        TELAPSE      175.77 TCPU      173.63
 DIIS TEST: 0.27430E-02 AT SCF   CYCLE   5 - DIIS ACTIVE - HISTORY:     5 CYCLES
 TTTTTTTTTTTTTTTTTTTTTTTTTTTTTT FDIK        TELAPSE      177.93 TCPU      175.78
 INSULATING STATE
 TOP OF VALENCE BANDS -    BAND    220; K   43; EIG -2.1057357E-01 AU
 TOP OF VALENCE BANDS -    BAND    220; K    1; EIG -2.1662196E-01 AU
 BOTTOM OF VIRTUAL BANDS - BAND    221; K   43; EIG -3.0476651E-02 AU
 DIRECT ENERGY BAND GAP:   4.9007 eV
 BOTTOM OF VIRTUAL BANDS - BAND    221; K    1; EIG -2.1119508E-02 AU
 TTTTTTTTTTTTTTTTTTTTTTTTTTTTTT PDIG        TELAPSE      178.44 TCPU      176.30
 CHARGE NORMALIZATION FACTOR   1.00000000
 TOTAL ATOMIC CHARGES:
  10.7613800  10.7613800  10.7613226  10.7613226  23.1469544  23.1469544
  23.1468368  23.1468368  23.1337359  23.1337359  23.1339857  23.1339857
   8.8856121   8.8856121   8.8768590   8.8768590   8.7648593   8.7648593
   8.7650462   8.7650462   8.8856275   8.8856275   8.8768729   8.8768729
   8.7733601   8.7733601   8.7988018   8.7988018   8.8585098   8.8585098
   8.8584213   8.8584213   8.7733329   8.7733329   8.7984816   8.7984816
 TTTTTTTTTTTTTTTTTTTTTTTTTTTTTT MOQGAD      TELAPSE      178.46 TCPU      176.31
 TTTTTTTTTTTTTTTTTTTTTTTTTTTTTT SHELLXN     TELAPSE      197.18 TCPU      195.01
 TTTTTTTTTTTTTTTTTTTTTTTTTTTTTT MONMO3      TELAPSE      197.49 TCPU      195.32
 NUMERICALLY INTEGRATED DENSITY    439.9999764471
 TTTTTTTTTTTTTTTTTTTTTTTTTTTTTT NUMDFT      TELAPSE      201.10 TCPU      198.92
 CYC   6 ETOT(AU) -4.968807469806E+03 DETOT -3.25E-04 tst  1.15E-06 PX  3.81E-03
 TTTTTTTTTTTTTTTTTTTTTTTTTTTTTT DIIS        TELAPSE      201.17 TCPU      198.99
 DIIS TEST: 0.88735E-03 AT SCF   CYCLE   6 - DIIS ACTIVE - HISTORY:     6 CYCLES
 TTTTTTTTTTTTTTTTTTTTTTTTTTTTTT FDIK        TELAPSE      202.73 TCPU      200.55
 INSULATING STATE
 TOP OF VALENCE BANDS -    BAND    220; K   68; EIG -2.1125066E-01 AU
 TOP OF VALENCE BANDS -    BAND    220; K    1; EIG -2.1783205E-01 AU
 BOTTOM OF VIRTUAL BANDS - BAND    221; K   43; EIG -3.0361584E-02 AU
 INDIRECT ENERGY BAND GAP:   4.9222 eV
 BOTTOM OF VIRTUAL BANDS - BAND    221; K    1; EIG -2.0842668E-02 AU
 TTTTTTTTTTTTTTTTTTTTTTTTTTTTTT PDIG        TELAPSE      203.25 TCPU      201.07
 CHARGE NORMALIZATION FACTOR   1.00000000
 TOTAL ATOMIC CHARGES:
  10.7609399  10.7609399  10.7608742  10.7608742  23.1547278  23.1547278
  23.1546169  23.1546169  23.1263449  23.1263449  23.1265887  23.1265887
   8.8792500   8.8792500   8.8824959   8.8824959   8.7632260   8.7632260
   8.7634123   8.7634123   8.8792795   8.8792795   8.8824802   8.8824802
   8.7753735   8.7753735   8.7971871   8.7971871   8.8605386   8.8605386
   8.8604433   8.8604433   8.7753439   8.7753439   8.7968772   8.7968772
 TTTTTTTTTTTTTTTTTTTTTTTTTTTTTT MOQGAD      TELAPSE      203.26 TCPU      201.08
 TTTTTTTTTTTTTTTTTTTTTTTTTTTTTT SHELLXN     TELAPSE      221.94 TCPU      219.75
 TTTTTTTTTTTTTTTTTTTTTTTTTTTTTT MONMO3      TELAPSE      222.25 TCPU      220.06
 NUMERICALLY INTEGRATED DENSITY    439.9999763860
 TTTTTTTTTTTTTTTTTTTTTTTTTTTTTT NUMDFT      TELAPSE      225.97 TCPU      223.77
 CYC   7 ETOT(AU) -4.968807497684E+03 DETOT -2.79E-05 tst  1.42E-06 PX  2.68E-03
 TTTTTTTTTTTTTTTTTTTTTTTTTTTTTT DIIS        TELAPSE      226.04 TCPU      223.83
 DIIS TEST: 0.80867E-03 AT SCF   CYCLE   7 - DIIS ACTIVE - HISTORY:     7 CYCLES
 TTTTTTTTTTTTTTTTTTTTTTTTTTTTTT FDIK        TELAPSE      227.84 TCPU      225.64
 INSULATING STATE
 TOP OF VALENCE BANDS -    BAND    220; K   43; EIG -2.1115613E-01 AU
 TOP OF VALENCE BANDS -    BAND    220; K    1; EIG -2.1741751E-01 AU
 BOTTOM OF VIRTUAL BANDS - BAND    221; K   43; EIG -3.0412289E-02 AU
 DIRECT ENERGY BAND GAP:   4.9183 eV
 BOTTOM OF VIRTUAL BANDS - BAND    221; K    1; EIG -2.0909863E-02 AU
 TTTTTTTTTTTTTTTTTTTTTTTTTTTTTT PDIG        TELAPSE      228.36 TCPU      226.16
 CHARGE NORMALIZATION FACTOR   1.00000000
 TOTAL ATOMIC CHARGES:
  10.7607107  10.7607107  10.7606427  10.7606427  23.1524499  23.1524499
  23.1523578  23.1523578  23.1288515  23.1288515  23.1290784  23.1290784
   8.8845870   8.8845870   8.8783429   8.8783429   8.7636763   8.7636763
   8.7638633   8.7638633   8.8846159   8.8846159   8.8783045   8.8783045
   8.7726379   8.7726379   8.7989310   8.7989310   8.8598960   8.8598960
   8.8597940   8.8597940   8.7726187   8.7726187   8.7986415   8.7986415
 TTTTTTTTTTTTTTTTTTTTTTTTTTTTTT MOQGAD      TELAPSE      228.38 TCPU      226.16
 TTTTTTTTTTTTTTTTTTTTTTTTTTTTTT SHELLXN     TELAPSE      247.10 TCPU      244.86
 TTTTTTTTTTTTTTTTTTTTTTTTTTTTTT MONMO3      TELAPSE      247.41 TCPU      245.16
 NUMERICALLY INTEGRATED DENSITY    439.9999764025
 TTTTTTTTTTTTTTTTTTTTTTTTTTTTTT NUMDFT      TELAPSE      251.11 TCPU      248.86
 CYC   8 ETOT(AU) -4.968807597104E+03 DETOT -9.94E-05 tst  4.39E-07 PX  9.82E-04
 TTTTTTTTTTTTTTTTTTTTTTTTTTTTTT DIIS        TELAPSE      251.18 TCPU      248.92
 DIIS TEST: 0.18787E-03 AT SCF   CYCLE   8 - DIIS ACTIVE - HISTORY:     8 CYCLES
 TTTTTTTTTTTTTTTTTTTTTTTTTTTTTT FDIK        TELAPSE      252.93 TCPU      250.67
 INSULATING STATE
 TOP OF VALENCE BANDS -    BAND    220; K   43; EIG -2.1105197E-01 AU
 TOP OF VALENCE BANDS -    BAND    220; K    1; EIG -2.1735394E-01 AU
 BOTTOM OF VIRTUAL BANDS - BAND    221; K   43; EIG -3.0407723E-02 AU
 DIRECT ENERGY BAND GAP:   4.9156 eV
 BOTTOM OF VIRTUAL BANDS - BAND    221; K    1; EIG -2.0939258E-02 AU
 TTTTTTTTTTTTTTTTTTTTTTTTTTTTTT PDIG        TELAPSE      253.45 TCPU      251.19
 CHARGE NORMALIZATION FACTOR   1.00000000
 TOTAL ATOMIC CHARGES:
  10.7607858  10.7607858  10.7607120  10.7607120  23.1510041  23.1510041
  23.1509108  23.1509108  23.1300444  23.1300444  23.1302736  23.1302736
   8.8823878   8.8823878   8.8800157   8.8800157   8.7637771   8.7637771
   8.7639665   8.7639665   8.8824104   8.8824104   8.8799883   8.8799883
   8.7746729   8.7746729   8.7976318   8.7976318   8.8597609   8.8597609
   8.8596642   8.8596642   8.7746518   8.7746518   8.7973419   8.7973419
 TTTTTTTTTTTTTTTTTTTTTTTTTTTTTT MOQGAD      TELAPSE      253.46 TCPU      251.19
 TTTTTTTTTTTTTTTTTTTTTTTTTTTTTT SHELLXN     TELAPSE      272.20 TCPU      269.92
 TTTTTTTTTTTTTTTTTTTTTTTTTTTTTT MONMO3      TELAPSE      272.50 TCPU      270.23
 NUMERICALLY INTEGRATED DENSITY    439.9999764031
 TTTTTTTTTTTTTTTTTTTTTTTTTTTTTT NUMDFT      TELAPSE      276.04 TCPU      273.76
 CYC   9 ETOT(AU) -4.968807605968E+03 DETOT -8.86E-06 tst  7.04E-08 PX  1.30E-03
 TTTTTTTTTTTTTTTTTTTTTTTTTTTTTT DIIS        TELAPSE      276.10 TCPU      273.82
 DIIS TEST: 0.67535E-04 AT SCF   CYCLE   9 - DIIS ACTIVE - HISTORY:     9 CYCLES
 TTTTTTTTTTTTTTTTTTTTTTTTTTTTTT FDIK        TELAPSE      277.78 TCPU      275.49
 INSULATING STATE
 TOP OF VALENCE BANDS -    BAND    220; K   43; EIG -2.1109706E-01 AU
 TOP OF VALENCE BANDS -    BAND    220; K    1; EIG -2.1736254E-01 AU
 BOTTOM OF VIRTUAL BANDS - BAND    221; K   43; EIG -3.0363121E-02 AU
 DIRECT ENERGY BAND GAP:   4.9180 eV
 BOTTOM OF VIRTUAL BANDS - BAND    221; K    1; EIG -2.0881706E-02 AU
 TTTTTTTTTTTTTTTTTTTTTTTTTTTTTT PDIG        TELAPSE      278.29 TCPU      276.01
 CHARGE NORMALIZATION FACTOR   1.00000000
 TOTAL ATOMIC CHARGES:
  10.7608567  10.7608567  10.7607816  10.7607816  23.1517547  23.1517547
  23.1516557  23.1516557  23.1291823  23.1291823  23.1294135  23.1294135
   8.8833610   8.8833610   8.8792839   8.8792839   8.7639597   8.7639597
   8.7641489   8.7641489   8.8833859   8.8833859   8.8792589   8.8792589
   8.7729779   8.7729779   8.7988218   8.7988218   8.8598840   8.8598840
   8.8597876   8.8597876   8.7729568   8.7729568   8.7985293   8.7985293
 TTTTTTTTTTTTTTTTTTTTTTTTTTTTTT MOQGAD      TELAPSE      278.31 TCPU      276.02
 TTTTTTTTTTTTTTTTTTTTTTTTTTTTTT SHELLXN     TELAPSE      297.03 TCPU      294.74
 TTTTTTTTTTTTTTTTTTTTTTTTTTTTTT MONMO3      TELAPSE      297.34 TCPU      295.04
 NUMERICALLY INTEGRATED DENSITY    439.9999764041
 TTTTTTTTTTTTTTTTTTTTTTTTTTTTTT NUMDFT      TELAPSE      301.00 TCPU      298.70
 CYC  10 ETOT(AU) -4.968807611552E+03 DETOT -5.58E-06 tst  2.63E-08 PX  6.24E-04
 TTTTTTTTTTTTTTTTTTTTTTTTTTTTTT DIIS        TELAPSE      301.07 TCPU      298.76
 DIIS TEST: 0.35219E-04 AT SCF   CYCLE  10 - DIIS ACTIVE - HISTORY:    10 CYCLES
 TTTTTTTTTTTTTTTTTTTTTTTTTTTTTT FDIK        TELAPSE      302.81 TCPU      300.49
 INSULATING STATE
 TOP OF VALENCE BANDS -    BAND    220; K   43; EIG -2.1108843E-01 AU
 TOP OF VALENCE BANDS -    BAND    220; K    1; EIG -2.1738559E-01 AU
 BOTTOM OF VIRTUAL BANDS - BAND    221; K   43; EIG -3.0380073E-02 AU
 DIRECT ENERGY BAND GAP:   4.9173 eV
 BOTTOM OF VIRTUAL BANDS - BAND    221; K    1; EIG -2.0890503E-02 AU
 TTTTTTTTTTTTTTTTTTTTTTTTTTTTTT PDIG        TELAPSE      303.32 TCPU      301.01
 CHARGE NORMALIZATION FACTOR   1.00000000
 TOTAL ATOMIC CHARGES:
  10.7608023  10.7608023  10.7607267  10.7607267  23.1517234  23.1517234
  23.1516193  23.1516193  23.1293164  23.1293164  23.1295429  23.1295429
   8.8835073   8.8835073   8.8792470   8.8792470   8.7635621   8.7635621
   8.7637545   8.7637545   8.8835403   8.8835403   8.8792152   8.8792152
   8.7740961   8.7740961   8.7979451   8.7979451   8.8598820   8.8598820
   8.8597854   8.8597854   8.7740768   8.7740768   8.7976574   8.7976574
 TTTTTTTTTTTTTTTTTTTTTTTTTTTTTT MOQGAD      TELAPSE      303.33 TCPU      301.02
 TTTTTTTTTTTTTTTTTTTTTTTTTTTTTT SHELLXN     TELAPSE      322.07 TCPU      319.72
 TTTTTTTTTTTTTTTTTTTTTTTTTTTTTT MONMO3      TELAPSE      322.38 TCPU      320.03
 NUMERICALLY INTEGRATED DENSITY    439.9999764027
 TTTTTTTTTTTTTTTTTTTTTTTTTTTTTT NUMDFT      TELAPSE      326.03 TCPU      323.67
 CYC  11 ETOT(AU) -4.968807613353E+03 DETOT -1.80E-06 tst  1.17E-08 PX  2.08E-04
 TTTTTTTTTTTTTTTTTTTTTTTTTTTTTT DIIS        TELAPSE      326.10 TCPU      323.73
 DIIS TEST: 0.10604E-04 AT SCF   CYCLE  11 - DIIS ACTIVE - HISTORY:    11 CYCLES
 TTTTTTTTTTTTTTTTTTTTTTTTTTTTTT FDIK        TELAPSE      327.71 TCPU      325.33
 INSULATING STATE
 TOP OF VALENCE BANDS -    BAND    220; K   43; EIG -2.1108227E-01 AU
 TOP OF VALENCE BANDS -    BAND    220; K    1; EIG -2.1735197E-01 AU
 BOTTOM OF VIRTUAL BANDS - BAND    221; K   43; EIG -3.0385016E-02 AU
 DIRECT ENERGY BAND GAP:   4.9170 eV
 BOTTOM OF VIRTUAL BANDS - BAND    221; K    1; EIG -2.0912513E-02 AU
 TTTTTTTTTTTTTTTTTTTTTTTTTTTTTT PDIG        TELAPSE      328.23 TCPU      325.85
 CHARGE NORMALIZATION FACTOR   1.00000000
 TOTAL ATOMIC CHARGES:
  10.7607999  10.7607999  10.7607240  10.7607240  23.1514465  23.1514465
  23.1513432  23.1513432  23.1296036  23.1296036  23.1298309  23.1298309
   8.8828761   8.8828761   8.8796185   8.8796185   8.7639582   8.7639582
   8.7641515   8.7641515   8.8829039   8.8829039   8.8795916   8.8795916
   8.7733603   8.7733603   8.7985729   8.7985729   8.8598452   8.8598452
   8.8597499   8.8597499   8.7733403   8.7733403   8.7982838   8.7982838
 TTTTTTTTTTTTTTTTTTTTTTTTTTTTTT MOQGAD      TELAPSE      328.24 TCPU      325.86
 TTTTTTTTTTTTTTTTTTTTTTTTTTTTTT SHELLXN     TELAPSE      346.94 TCPU      344.52
 TTTTTTTTTTTTTTTTTTTTTTTTTTTTTT MONMO3      TELAPSE      347.25 TCPU      344.83
 NUMERICALLY INTEGRATED DENSITY    439.9999764019
 TTTTTTTTTTTTTTTTTTTTTTTTTTTTTT NUMDFT      TELAPSE      350.96 TCPU      348.53
 CYC  12 ETOT(AU) -4.968807613469E+03 DETOT -1.16E-07 tst  6.28E-09 PX  1.86E-04
 TTTTTTTTTTTTTTTTTTTTTTTTTTTTTT DIIS        TELAPSE      351.04 TCPU      348.60
 DIIS TEST: 0.86144E-05 AT SCF   CYCLE  12 - DIIS ACTIVE - HISTORY:    12 CYCLES
 TTTTTTTTTTTTTTTTTTTTTTTTTTTTTT FDIK        TELAPSE      352.74 TCPU      350.28
 INSULATING STATE
 TOP OF VALENCE BANDS -    BAND    220; K   43; EIG -2.1108470E-01 AU
 TOP OF VALENCE BANDS -    BAND    220; K    1; EIG -2.1737054E-01 AU
 BOTTOM OF VIRTUAL BANDS - BAND    221; K   43; EIG -3.0373785E-02 AU
 DIRECT ENERGY BAND GAP:   4.9174 eV
 BOTTOM OF VIRTUAL BANDS - BAND    221; K    1; EIG -2.0889969E-02 AU
 TTTTTTTTTTTTTTTTTTTTTTTTTTTTTT PDIG        TELAPSE      353.26 TCPU      350.80
 CHARGE NORMALIZATION FACTOR   1.00000000
 TOTAL ATOMIC CHARGES:
  10.7608235  10.7608235  10.7607474  10.7607474  23.1516043  23.1516043
  23.1515006  23.1515006  23.1294030  23.1294030  23.1296334  23.1296334
   8.8832917   8.8832917   8.8793942   8.8793942   8.7637479   8.7637479
   8.7639396   8.7639396   8.8833181   8.8833181   8.8793711   8.8793711
   8.7737485   8.7737485   8.7982002   8.7982002   8.8598678   8.8598678
   8.8597740   8.8597740   8.7737283   8.7737283   8.7979063   8.7979063
 TTTTTTTTTTTTTTTTTTTTTTTTTTTTTT MOQGAD      TELAPSE      353.27 TCPU      350.81
 TTTTTTTTTTTTTTTTTTTTTTTTTTTTTT SHELLXN     TELAPSE      372.00 TCPU      369.52
 TTTTTTTTTTTTTTTTTTTTTTTTTTTTTT MONMO3      TELAPSE      372.31 TCPU      369.83
 NUMERICALLY INTEGRATED DENSITY    439.9999764034
 TTTTTTTTTTTTTTTTTTTTTTTTTTTTTT NUMDFT      TELAPSE      375.86 TCPU      373.37
 CYC  13 ETOT(AU) -4.968807614464E+03 DETOT -9.95E-07 tst  2.72E-09 PX  1.50E-04
 TTTTTTTTTTTTTTTTTTTTTTTTTTTTTT DIIS        TELAPSE      375.93 TCPU      373.43
 DIIS TEST: 0.11443E-05 AT SCF   CYCLE  13 - DIIS ACTIVE - HISTORY:    13 CYCLES
 TTTTTTTTTTTTTTTTTTTTTTTTTTTTTT FDIK        TELAPSE      378.00 TCPU      375.50
 INSULATING STATE
 TOP OF VALENCE BANDS -    BAND    220; K   43; EIG -2.1108337E-01 AU
 TOP OF VALENCE BANDS -    BAND    220; K    1; EIG -2.1736648E-01 AU
 BOTTOM OF VIRTUAL BANDS - BAND    221; K   43; EIG -3.0379552E-02 AU
 DIRECT ENERGY BAND GAP:   4.9172 eV
 BOTTOM OF VIRTUAL BANDS - BAND    221; K    1; EIG -2.0898650E-02 AU
 TTTTTTTTTTTTTTTTTTTTTTTTTTTTTT PDIG        TELAPSE      378.52 TCPU      376.01
 CHARGE NORMALIZATION FACTOR   1.00000000
 TOTAL ATOMIC CHARGES:
  10.7608049  10.7608049  10.7607291  10.7607291  23.1516360  23.1516360
  23.1515340  23.1515340  23.1293949  23.1293949  23.1296266  23.1296266
   8.8831973   8.8831973   8.8794152   8.8794152   8.7637407   8.7637407
   8.7639306   8.7639306   8.8832296   8.8832296   8.8793831   8.8793831
   8.7737056   8.7737056   8.7983113   8.7983113   8.8598766   8.8598766
   8.8597791   8.8597791   8.7736870   8.7736870   8.7980184   8.7980184
 TTTTTTTTTTTTTTTTTTTTTTTTTTTTTT MOQGAD      TELAPSE      378.53 TCPU      376.02
 TTTTTTTTTTTTTTTTTTTTTTTTTTTTTT SHELLXN     TELAPSE      397.27 TCPU      394.73
 TTTTTTTTTTTTTTTTTTTTTTTTTTTTTT MONMO3      TELAPSE      397.58 TCPU      395.04
 NUMERICALLY INTEGRATED DENSITY    439.9999764015
 TTTTTTTTTTTTTTTTTTTTTTTTTTTTTT NUMDFT      TELAPSE      401.24 TCPU      398.68
 CYC  14 ETOT(AU) -4.968807614536E+03 DETOT -7.21E-08 tst  1.25E-10 PX  4.34E-05
 TTTTTTTTTTTTTTTTTTTTTTTTTTTTTT DIIS        TELAPSE      401.31 TCPU      398.75
 DIIS TEST: 0.10160E-06 AT SCF   CYCLE  14 - DIIS ACTIVE - HISTORY:    14 CYCLES
 TTTTTTTTTTTTTTTTTTTTTTTTTTTTTT FDIK        TELAPSE      402.90 TCPU      400.32
 INSULATING STATE
 TOP OF VALENCE BANDS -    BAND    220; K   43; EIG -2.1108713E-01 AU
 TOP OF VALENCE BANDS -    BAND    220; K    1; EIG -2.1737051E-01 AU
 BOTTOM OF VIRTUAL BANDS - BAND    221; K   43; EIG -3.0376286E-02 AU
 DIRECT ENERGY BAND GAP:   4.9174 eV
 BOTTOM OF VIRTUAL BANDS - BAND    221; K    1; EIG -2.0893332E-02 AU
 TTTTTTTTTTTTTTTTTTTTTTTTTTTTTT PDIG        TELAPSE      403.41 TCPU      400.84
 CHARGE NORMALIZATION FACTOR   1.00000000
 TOTAL ATOMIC CHARGES:
  10.7608127  10.7608127  10.7607357  10.7607357  23.1515364  23.1515364
  23.1514361  23.1514361  23.1294912  23.1294912  23.1297213  23.1297213
   8.8832403   8.8832403   8.8794383   8.8794383   8.7638179   8.7638179
   8.7640125   8.7640125   8.8832560   8.8832560   8.8794235   8.8794235
   8.7736778   8.7736778   8.7982049   8.7982049   8.8598595   8.8598595
   8.8597696   8.8597696   8.7736525   8.7736525   8.7979137   8.7979137
 TTTTTTTTTTTTTTTTTTTTTTTTTTTTTT MOQGAD      TELAPSE      403.43 TCPU      400.85
 TTTTTTTTTTTTTTTTTTTTTTTTTTTTTT SHELLXN     TELAPSE      422.17 TCPU      419.54
 TTTTTTTTTTTTTTTTTTTTTTTTTTTTTT MONMO3      TELAPSE      422.47 TCPU      419.85
 NUMERICALLY INTEGRATED DENSITY    439.9999764044
 TTTTTTTTTTTTTTTTTTTTTTTTTTTTTT NUMDFT      TELAPSE      426.04 TCPU      423.40
 CYC  15 ETOT(AU) -4.968807614501E+03 DETOT  3.50E-08 tst  1.07E-10 PX  2.15E-05
 TTTTTTTTTTTTTTTTTTTTTTTTTTTTTT DIIS        TELAPSE      426.13 TCPU      423.49
 DIIS TEST: 0.17722E-06 AT SCF   CYCLE  15 - DIIS ACTIVE - HISTORY:    15 CYCLES
 TTTTTTTTTTTTTTTTTTTTTTTTTTTTTT FDIK        TELAPSE      427.85 TCPU      425.20
 INSULATING STATE
 TOP OF VALENCE BANDS -    BAND    220; K   43; EIG -2.1108418E-01 AU
 TOP OF VALENCE BANDS -    BAND    220; K    1; EIG -2.1736769E-01 AU
 BOTTOM OF VIRTUAL BANDS - BAND    221; K   43; EIG -3.0377062E-02 AU
 DIRECT ENERGY BAND GAP:   4.9173 eV
 BOTTOM OF VIRTUAL BANDS - BAND    221; K    1; EIG -2.0895331E-02 AU
 TTTTTTTTTTTTTTTTTTTTTTTTTTTTTT PDIG        TELAPSE      428.36 TCPU      425.71
 CHARGE NORMALIZATION FACTOR   1.00000000
 TOTAL ATOMIC CHARGES:
  10.7608118  10.7608118  10.7607361  10.7607361  23.1516001  23.1516001
  23.1514981  23.1514981  23.1294237  23.1294237  23.1296544  23.1296544
   8.8832188   8.8832188   8.8794291   8.8794291   8.7637614   8.7637614
   8.7639508   8.7639508   8.8832496   8.8832496   8.8793996   8.8793996
   8.7737014   8.7737014   8.7982714   8.7982714   8.8598647   8.8598647
   8.8597684   8.8597684   8.7736843   8.7736843   8.7979762   8.7979762
 TTTTTTTTTTTTTTTTTTTTTTTTTTTTTT MOQGAD      TELAPSE      428.38 TCPU      425.72
 TTTTTTTTTTTTTTTTTTTTTTTTTTTTTT SHELLXN     TELAPSE      447.12 TCPU      444.43
 TTTTTTTTTTTTTTTTTTTTTTTTTTTTTT MONMO3      TELAPSE      447.43 TCPU      444.74
 NUMERICALLY INTEGRATED DENSITY    439.9999764026
 TTTTTTTTTTTTTTTTTTTTTTTTTTTTTT NUMDFT      TELAPSE      451.09 TCPU      448.39
 CYC  16 ETOT(AU) -4.968807614531E+03 DETOT -2.99E-08 tst  4.57E-11 PX  1.29E-05
 TTTTTTTTTTTTTTTTTTTTTTTTTTTTTT DIIS        TELAPSE      451.21 TCPU      448.50
 DIIS TEST: 0.17644E-07 AT SCF   CYCLE  16 - DIIS ACTIVE - HISTORY:    16 CYCLES
 TTTTTTTTTTTTTTTTTTTTTTTTTTTTTT FDIK        TELAPSE      453.35 TCPU      450.64
 INSULATING STATE
 TOP OF VALENCE BANDS -    BAND    220; K   43; EIG -2.1108441E-01 AU
 TOP OF VALENCE BANDS -    BAND    220; K    1; EIG -2.1736795E-01 AU
 BOTTOM OF VIRTUAL BANDS - BAND    221; K   43; EIG -3.0377789E-02 AU
 DIRECT ENERGY BAND GAP:   4.9173 eV
 BOTTOM OF VIRTUAL BANDS - BAND    221; K    1; EIG -2.0895837E-02 AU
 TTTTTTTTTTTTTTTTTTTTTTTTTTTTTT PDIG        TELAPSE      453.88 TCPU      451.16
 CHARGE NORMALIZATION FACTOR   1.00000000
 TOTAL ATOMIC CHARGES:
  10.7608098  10.7608098  10.7607325  10.7607325  23.1516047  23.1516047
  23.1515048  23.1515048  23.1294222  23.1294222  23.1296524  23.1296524
   8.8832182   8.8832182   8.8794119   8.8794119   8.7637695   8.7637695
   8.7639654   8.7639654   8.8832364   8.8832364   8.8793921   8.8793921
   8.7737041   8.7737041   8.7982595   8.7982595   8.8598794   8.8598794
   8.8597875   8.8597875   8.7736755   8.7736755   8.7979740   8.7979740
 TTTTTTTTTTTTTTTTTTTTTTTTTTTTTT MOQGAD      TELAPSE      453.89 TCPU      451.17
 TTTTTTTTTTTTTTTTTTTTTTTTTTTTTT SHELLXN     TELAPSE      472.66 TCPU      469.88
 TTTTTTTTTTTTTTTTTTTTTTTTTTTTTT MONMO3      TELAPSE      472.97 TCPU      470.19
 NUMERICALLY INTEGRATED DENSITY    439.9999764025
 TTTTTTTTTTTTTTTTTTTTTTTTTTTTTT NUMDFT      TELAPSE      476.61 TCPU      473.82
 CYC  17 ETOT(AU) -4.968807614535E+03 DETOT -3.88E-09 tst  3.50E-12 PX  8.56E-06
 TTTTTTTTTTTTTTTTTTTTTTTTTTTTTT DIIS        TELAPSE      476.73 TCPU      473.93
 DIIS TEST: 0.67920E-08 AT SCF   CYCLE  17 - DIIS ACTIVE - HISTORY:    17 CYCLES
 TTTTTTTTTTTTTTTTTTTTTTTTTTTTTT FDIK        TELAPSE      478.54 TCPU      475.73
 INSULATING STATE
 TOP OF VALENCE BANDS -    BAND    220; K   43; EIG -2.1108470E-01 AU
 TOP OF VALENCE BANDS -    BAND    220; K    1; EIG -2.1736809E-01 AU
 BOTTOM OF VIRTUAL BANDS - BAND    221; K   43; EIG -3.0377451E-02 AU
 DIRECT ENERGY BAND GAP:   4.9173 eV
 BOTTOM OF VIRTUAL BANDS - BAND    221; K    1; EIG -2.0895821E-02 AU
 TTTTTTTTTTTTTTTTTTTTTTTTTTTTTT PDIG        TELAPSE      479.06 TCPU      476.25
 CHARGE NORMALIZATION FACTOR   1.00000000
 TOTAL ATOMIC CHARGES:
  10.7608094  10.7608094  10.7607351  10.7607351  23.1515952  23.1515952
  23.1514912  23.1514912  23.1294326  23.1294326  23.1296632  23.1296632
   8.8832143   8.8832143   8.8794425   8.8794425   8.7637619   8.7637619
   8.7639444   8.7639444   8.8832602   8.8832602   8.8794012   8.8794012
   8.7736936   8.7736936   8.7982785   8.7982785   8.8598576   8.8598576
   8.8597562   8.8597562   8.7736906   8.7736906   8.7979723   8.7979723
 TTTTTTTTTTTTTTTTTTTTTTTTTTTTTT MOQGAD      TELAPSE      479.07 TCPU      476.26
 TTTTTTTTTTTTTTTTTTTTTTTTTTTTTT SHELLXN     TELAPSE      497.77 TCPU      494.93
 TTTTTTTTTTTTTTTTTTTTTTTTTTTTTT MONMO3      TELAPSE      498.08 TCPU      495.23
 NUMERICALLY INTEGRATED DENSITY    439.9999764027
 TTTTTTTTTTTTTTTTTTTTTTTTTTTTTT NUMDFT      TELAPSE      501.62 TCPU      498.76
 CYC  18 ETOT(AU) -4.968807614529E+03 DETOT  5.93E-09 tst  1.05E-11 PX  6.51E-06
 TTTTTTTTTTTTTTTTTTTTTTTTTTTTTT DIIS        TELAPSE      501.73 TCPU      498.87
 DIIS TEST: 0.12550E-07 AT SCF   CYCLE  18 - DIIS ACTIVE - HISTORY:    18 CYCLES
 TTTTTTTTTTTTTTTTTTTTTTTTTTTTTT FDIK        TELAPSE      503.54 TCPU      500.68
 INSULATING STATE
 TOP OF VALENCE BANDS -    BAND    220; K   43; EIG -2.1108436E-01 AU
 TOP OF VALENCE BANDS -    BAND    220; K    1; EIG -2.1736785E-01 AU
 BOTTOM OF VIRTUAL BANDS - BAND    221; K   43; EIG -3.0377406E-02 AU
 DIRECT ENERGY BAND GAP:   4.9173 eV
 BOTTOM OF VIRTUAL BANDS - BAND    221; K    1; EIG -2.0895640E-02 AU
 TTTTTTTTTTTTTTTTTTTTTTTTTTTTTT PDIG        TELAPSE      504.06 TCPU      501.20
 CHARGE NORMALIZATION FACTOR   1.00000000
 TOTAL ATOMIC CHARGES:
  10.7608110  10.7608110  10.7607342  10.7607342  23.1515997  23.1515997
  23.1514991  23.1514991  23.1294257  23.1294257  23.1296562  23.1296562
   8.8832216   8.8832216   8.8794234   8.8794234   8.7637619   8.7637619
   8.7639561   8.7639561   8.8832425   8.8832425   8.8794018   8.8794018
   8.7737051   8.7737051   8.7982658   8.7982658   8.8598659   8.8598659
   8.8597731   8.8597731   8.7736785   8.7736785   8.7979782   8.7979782
 TTTTTTTTTTTTTTTTTTTTTTTTTTTTTT MOQGAD      TELAPSE      504.07 TCPU      501.21
 TTTTTTTTTTTTTTTTTTTTTTTTTTTTTT SHELLXN     TELAPSE      522.82 TCPU      519.94
 TTTTTTTTTTTTTTTTTTTTTTTTTTTTTT MONMO3      TELAPSE      523.12 TCPU      520.25
 NUMERICALLY INTEGRATED DENSITY    439.9999764026
 TTTTTTTTTTTTTTTTTTTTTTTTTTTTTT NUMDFT      TELAPSE      526.67 TCPU      523.79
 CYC  19 ETOT(AU) -4.968807614532E+03 DETOT -2.91E-09 tst  5.75E-12 PX  3.92E-06
 TTTTTTTTTTTTTTTTTTTTTTTTTTTTTT DIIS        TELAPSE      526.79 TCPU      523.91
 DIIS TEST: 0.15874E-08 AT SCF   CYCLE  19 - DIIS ACTIVE - HISTORY:    19 CYCLES
 TTTTTTTTTTTTTTTTTTTTTTTTTTTTTT FDIK        TELAPSE      528.63 TCPU      525.75
 INSULATING STATE
 TOP OF VALENCE BANDS -    BAND    220; K   43; EIG -2.1108436E-01 AU
 TOP OF VALENCE BANDS -    BAND    220; K    1; EIG -2.1736787E-01 AU
 BOTTOM OF VIRTUAL BANDS - BAND    221; K   43; EIG -3.0377475E-02 AU
 DIRECT ENERGY BAND GAP:   4.9173 eV
 BOTTOM OF VIRTUAL BANDS - BAND    221; K    1; EIG -2.0895658E-02 AU
 TTTTTTTTTTTTTTTTTTTTTTTTTTTTTT PDIG        TELAPSE      529.15 TCPU      526.27
 CHARGE NORMALIZATION FACTOR   1.00000000
 TOTAL ATOMIC CHARGES:
  10.7608102  10.7608102  10.7607344  10.7607344  23.1516015  23.1516015
  23.1514995  23.1514995  23.1294250  23.1294250  23.1296555  23.1296555
[...]
-rw-r--r-- 1 fbodo linuxusers         0 Dec 26 10:12 fort.8.pe014
-rw-r--r-- 1 fbodo linuxusers         0 Dec 26 10:12 fort.8.pe015
-rw-r--r-- 1 fbodo linuxusers         0 Dec 26 10:12 fort.8.pe016
-rw-r--r-- 1 fbodo linuxusers         0 Dec 26 10:12 fort.8.pe017
-rw-r--r-- 1 fbodo linuxusers         0 Dec 26 10:12 fort.8.pe018
-rw-r--r-- 1 fbodo linuxusers         0 Dec 26 10:12 fort.8.pe019
-rw-r--r-- 1 fbodo linuxusers         0 Dec 26 10:12 fort.8.pe020
-rw-r--r-- 1 fbodo linuxusers         0 Dec 26 10:12 fort.8.pe021
-rw-r--r-- 1 fbodo linuxusers         0 Dec 26 10:12 fort.8.pe022
-rw-r--r-- 1 fbodo linuxusers         0 Dec 26 10:12 fort.8.pe023
-rw-r--r-- 1 fbodo linuxusers         0 Dec 26 10:12 fort.8.pe024
-rw-r--r-- 1 fbodo linuxusers         0 Dec 26 10:12 fort.8.pe025
-rw-r--r-- 1 fbodo linuxusers         0 Dec 26 10:12 fort.8.pe026
-rw-r--r-- 1 fbodo linuxusers         0 Dec 26 10:12 fort.8.pe027
-rw-r--r-- 1 fbodo linuxusers         0 Dec 26 10:12 fort.8.pe028
-rw-r--r-- 1 fbodo linuxusers         0 Dec 26 10:12 fort.8.pe029
-rw-r--r-- 1 fbodo linuxusers         0 Dec 26 10:12 fort.8.pe030
-rw-r--r-- 1 fbodo linuxusers         0 Dec 26 10:12 fort.8.pe031
-rw-r--r-- 1 fbodo linuxusers         0 Dec 26 10:12 fort.8.pe032
-rw-r--r-- 1 fbodo linuxusers         0 Dec 26 10:12 fort.8.pe033
-rw-r--r-- 1 fbodo linuxusers         0 Dec 26 10:12 fort.8.pe034
-rw-r--r-- 1 fbodo linuxusers         0 Dec 26 10:12 fort.8.pe035
-rw-r--r-- 1 fbodo linuxusers   5068936 Dec 26 17:43 fort.8.pe036
-rw-r--r-- 1 fbodo linuxusers  10137864 Dec 26 17:43 fort.8.pe037
-rw-r--r-- 1 fbodo linuxusers  10137864 Dec 26 17:43 fort.8.pe038
-rw-r--r-- 1 fbodo linuxusers   5068936 Dec 26 17:43 fort.8.pe039
-rw-r--r-- 1 fbodo linuxusers   2534472 Dec 26 17:43 fort.8.pe040
-rw-r--r-- 1 fbodo linuxusers   2534472 Dec 26 17:43 fort.8.pe041
-rw-r--r-- 1 fbodo linuxusers  10137864 Dec 26 17:43 fort.8.pe042
-rw-r--r-- 1 fbodo linuxusers  10137864 Dec 26 17:43 fort.8.pe043
-rw-r--r-- 1 fbodo linuxusers   2534472 Dec 26 17:43 fort.8.pe044
-rw-r--r-- 1 fbodo linuxusers   2534472 Dec 26 17:43 fort.8.pe045
-rw-r--r-- 1 fbodo linuxusers   2534472 Dec 26 17:43 fort.8.pe046
-rw-r--r-- 1 fbodo linuxusers   2534472 Dec 26 17:43 fort.8.pe047
-rw-r--r-- 1 fbodo linuxusers  10137864 Dec 26 17:43 fort.8.pe048
-rw-r--r-- 1 fbodo linuxusers  10137864 Dec 26 17:43 fort.8.pe049
-rw-r--r-- 1 fbodo linuxusers   2534472 Dec 26 17:43 fort.8.pe050
-rw-r--r-- 1 fbodo linuxusers   2534472 Dec 26 17:43 fort.8.pe051
-rw-r--r-- 1 fbodo linuxusers   1267240 Dec 26 17:43 fort.8.pe052
-rw-r--r-- 1 fbodo linuxusers   1267240 Dec 26 17:43 fort.8.pe053
-rw-r--r-- 1 fbodo linuxusers  10137864 Dec 26 17:43 fort.8.pe054
-rw-r--r-- 1 fbodo linuxusers  10137864 Dec 26 17:43 fort.8.pe055
-rw-r--r-- 1 fbodo linuxusers   1267240 Dec 26 17:43 fort.8.pe056
-rw-r--r-- 1 fbodo linuxusers   1267240 Dec 26 17:43 fort.8.pe057
-rw-r--r-- 1 fbodo linuxusers  10137864 Dec 26 17:43 fort.8.pe058
-rw-r--r-- 1 fbodo linuxusers  10137864 Dec 26 17:43 fort.8.pe059
-rw-r--r-- 1 fbodo linuxusers  10137864 Dec 26 17:43 fort.8.pe060
-rw-r--r-- 1 fbodo linuxusers  10137864 Dec 26 17:43 fort.8.pe061
-rw-r--r-- 1 fbodo linuxusers  10137864 Dec 26 17:43 fort.8.pe062
-rw-r--r-- 1 fbodo linuxusers  10137864 Dec 26 17:43 fort.8.pe063
-rw-r--r-- 1 fbodo linuxusers  10137864 Dec 26 17:43 fort.8.pe064
-rw-r--r-- 1 fbodo linuxusers  10137864 Dec 26 17:43 fort.8.pe065
-rw-r--r-- 1 fbodo linuxusers  10137864 Dec 26 17:43 fort.8.pe066
-rw-r--r-- 1 fbodo linuxusers  10137864 Dec 26 17:43 fort.8.pe067
-rw-r--r-- 1 fbodo linuxusers  10137864 Dec 26 17:43 fort.8.pe068
-rw-r--r-- 1 fbodo linuxusers  10137864 Dec 26 17:43 fort.8.pe069
-rw-r--r-- 1 fbodo linuxusers  10137864 Dec 26 17:43 fort.8.pe070
-rw-r--r-- 1 fbodo linuxusers  10137864 Dec 26 17:43 fort.8.pe071
-rw-r--r-- 1 fbodo linuxusers  10137864 Dec 26 17:43 fort.8.pe072
-rw-r--r-- 1 fbodo linuxusers  10137864 Dec 26 17:43 fort.8.pe073
-rw-r--r-- 1 fbodo linuxusers  10137864 Dec 26 17:43 fort.8.pe074
-rw-r--r-- 1 fbodo linuxusers  10137864 Dec 26 17:43 fort.8.pe075
-rw-r--r-- 1 fbodo linuxusers  10137864 Dec 26 17:43 fort.8.pe076
-rw-r--r-- 1 fbodo linuxusers  10137864 Dec 26 17:43 fort.8.pe077
-rw-r--r-- 1 fbodo linuxusers  10137864 Dec 26 17:43 fort.8.pe078
-rw-r--r-- 1 fbodo linuxusers  10137864 Dec 26 17:43 fort.8.pe079
-rw-r--r-- 1 fbodo linuxusers  10137864 Dec 26 17:43 fort.8.pe080
-rw-r--r-- 1 fbodo linuxusers  10137864 Dec 26 17:43 fort.8.pe081
-rw-r--r-- 1 fbodo linuxusers  10137864 Dec 26 17:43 fort.8.pe082
-rw-r--r-- 1 fbodo linuxusers  10137864 Dec 26 17:43 fort.8.pe083
-rw-r--r-- 1 fbodo linuxusers  10137864 Dec 26 17:43 fort.8.pe084
-rw-r--r-- 1 fbodo linuxusers  10137864 Dec 26 17:43 fort.8.pe085
-rw-r--r-- 1 fbodo linuxusers  10137864 Dec 26 17:43 fort.8.pe086
-rw-r--r-- 1 fbodo linuxusers  10137864 Dec 26 17:43 fort.8.pe087
-rw-r--r-- 1 fbodo linuxusers  10137864 Dec 26 17:43 fort.8.pe088
-rw-r--r-- 1 fbodo linuxusers  10137864 Dec 26 17:43 fort.8.pe089
-rw-r--r-- 1 fbodo linuxusers  10137864 Dec 26 17:43 fort.8.pe090
-rw-r--r-- 1 fbodo linuxusers  10137864 Dec 26 17:43 fort.8.pe091
-rw-r--r-- 1 fbodo linuxusers  10137864 Dec 26 17:43 fort.8.pe092
-rw-r--r-- 1 fbodo linuxusers  10137864 Dec 26 17:43 fort.8.pe093
-rw-r--r-- 1 fbodo linuxusers  10137864 Dec 26 17:43 fort.8.pe094
-rw-r--r-- 1 fbodo linuxusers  10137864 Dec 26 17:43 fort.8.pe095
-rw-r--r-- 1 fbodo linuxusers  10137864 Dec 26 17:43 fort.8.pe096
-rw-r--r-- 1 fbodo linuxusers  10137864 Dec 26 17:43 fort.8.pe097
-rw-r--r-- 1 fbodo linuxusers  10137864 Dec 26 17:43 fort.8.pe098
-rw-r--r-- 1 fbodo linuxusers  10137864 Dec 26 17:43 fort.8.pe099
-rw-r--r-- 1 fbodo linuxusers  10137864 Dec 26 17:43 fort.8.pe100
-rw-r--r-- 1 fbodo linuxusers  10137864 Dec 26 17:43 fort.8.pe101
-rw-r--r-- 1 fbodo linuxusers  10137864 Dec 26 17:43 fort.8.pe102
-rw-r--r-- 1 fbodo linuxusers  10137864 Dec 26 17:43 fort.8.pe103
-rw-r--r-- 1 fbodo linuxusers  10137864 Dec 26 17:43 fort.8.pe104
-rw-r--r-- 1 fbodo linuxusers  10137864 Dec 26 17:43 fort.8.pe105
-rw-r--r-- 1 fbodo linuxusers   5068936 Dec 26 17:43 fort.8.pe106
-rw-r--r-- 1 fbodo linuxusers  10137864 Dec 26 17:43 fort.8.pe107
-rw-r--r-- 1 fbodo linuxusers  10137864 Dec 26 17:43 fort.8.pe108
-rw-r--r-- 1 fbodo linuxusers   5068936 Dec 26 17:43 fort.8.pe109
-rw-r--r-- 1 fbodo linuxusers   2534472 Dec 26 17:43 fort.8.pe110
-rw-r--r-- 1 fbodo linuxusers   2534472 Dec 26 17:43 fort.8.pe111
-rw-r--r-- 1 fbodo linuxusers  10137864 Dec 26 17:43 fort.8.pe112
-rw-r--r-- 1 fbodo linuxusers  10137864 Dec 26 17:43 fort.8.pe113
-rw-r--r-- 1 fbodo linuxusers   2534472 Dec 26 17:43 fort.8.pe114
-rw-r--r-- 1 fbodo linuxusers   2534472 Dec 26 17:43 fort.8.pe115
-rw-r--r-- 1 fbodo linuxusers   2534472 Dec 26 17:43 fort.8.pe116
-rw-r--r-- 1 fbodo linuxusers   2534472 Dec 26 17:43 fort.8.pe117
-rw-r--r-- 1 fbodo linuxusers  10137864 Dec 26 17:43 fort.8.pe118
-rw-r--r-- 1 fbodo linuxusers  10137864 Dec 26 17:43 fort.8.pe119
-rw-r--r-- 1 fbodo linuxusers   2534472 Dec 26 17:43 fort.8.pe120
-rw-r--r-- 1 fbodo linuxusers   2534472 Dec 26 17:43 fort.8.pe121
-rw-r--r-- 1 fbodo linuxusers   1267240 Dec 26 17:43 fort.8.pe122
-rw-r--r-- 1 fbodo linuxusers   1267240 Dec 26 17:43 fort.8.pe123
-rw-r--r-- 1 fbodo linuxusers  10137864 Dec 26 17:43 fort.8.pe124
-rw-r--r-- 1 fbodo linuxusers  10137864 Dec 26 17:43 fort.8.pe125
-rw-r--r-- 1 fbodo linuxusers   1267240 Dec 26 17:43 fort.8.pe126
-rw-r--r-- 1 fbodo linuxusers   1267240 Dec 26 17:43 fort.8.pe127
-rw-r----- 1 fbodo linuxusers  13434164 Dec 26 17:47 fort.9
-rw-r--r-- 1 fbodo linuxusers   9179256 Dec 26 17:43 fort.95.pe000
-rw-r--r-- 1 fbodo linuxusers   9179256 Dec 26 17:43 fort.95.pe001
-rw-r--r-- 1 fbodo linuxusers   9179256 Dec 26 17:43 fort.95.pe002
-rw-r--r-- 1 fbodo linuxusers   9179256 Dec 26 17:43 fort.95.pe003
-rw-r--r-- 1 fbodo linuxusers   9179256 Dec 26 17:43 fort.95.pe004
-rw-r--r-- 1 fbodo linuxusers   9179256 Dec 26 17:43 fort.95.pe005
-rw-r--r-- 1 fbodo linuxusers   9179256 Dec 26 17:43 fort.95.pe006
-rw-r--r-- 1 fbodo linuxusers   9179256 Dec 26 17:43 fort.95.pe007
-rw-r--r-- 1 fbodo linuxusers   9179256 Dec 26 17:43 fort.95.pe008
-rw-r--r-- 1 fbodo linuxusers   9179256 Dec 26 17:43 fort.95.pe009
-rw-r--r-- 1 fbodo linuxusers   9179256 Dec 26 17:43 fort.95.pe010
-rw-r--r-- 1 fbodo linuxusers   9179256 Dec 26 17:43 fort.95.pe011
-rw-r--r-- 1 fbodo linuxusers   9179256 Dec 26 17:43 fort.95.pe012
-rw-r--r-- 1 fbodo linuxusers   9179256 Dec 26 17:43 fort.95.pe013
-rw-r--r-- 1 fbodo linuxusers   9179256 Dec 26 17:43 fort.95.pe014
-rw-r--r-- 1 fbodo linuxusers   9179256 Dec 26 17:43 fort.95.pe015
-rw-r--r-- 1 fbodo linuxusers   9179256 Dec 26 17:43 fort.95.pe016
-rw-r--r-- 1 fbodo linuxusers   9179256 Dec 26 17:43 fort.95.pe017
-rw-r--r-- 1 fbodo linuxusers   9179256 Dec 26 17:43 fort.95.pe018
-rw-r--r-- 1 fbodo linuxusers   9179256 Dec 26 17:43 fort.95.pe019
-rw-r--r-- 1 fbodo linuxusers   9179256 Dec 26 17:43 fort.95.pe020
-rw-r--r-- 1 fbodo linuxusers   9179256 Dec 26 17:43 fort.95.pe021
-rw-r--r-- 1 fbodo linuxusers   9179256 Dec 26 17:43 fort.95.pe022
-rw-r--r-- 1 fbodo linuxusers   9179256 Dec 26 17:43 fort.95.pe023
-rw-r--r-- 1 fbodo linuxusers   9179256 Dec 26 17:43 fort.95.pe024
-rw-r--r-- 1 fbodo linuxusers   9179256 Dec 26 17:43 fort.95.pe025
-rw-r--r-- 1 fbodo linuxusers   9179256 Dec 26 17:43 fort.95.pe026
-rw-r--r-- 1 fbodo linuxusers   9179256 Dec 26 17:43 fort.95.pe027
-rw-r--r-- 1 fbodo linuxusers   9179256 Dec 26 17:43 fort.95.pe028
-rw-r--r-- 1 fbodo linuxusers   9179256 Dec 26 17:43 fort.95.pe029
-rw-r--r-- 1 fbodo linuxusers   9179256 Dec 26 17:43 fort.95.pe030
-rw-r--r-- 1 fbodo linuxusers   9179256 Dec 26 17:43 fort.95.pe031
-rw-r--r-- 1 fbodo linuxusers   9179256 Dec 26 17:43 fort.95.pe032
-rw-r--r-- 1 fbodo linuxusers   9179256 Dec 26 17:43 fort.95.pe033
-rw-r--r-- 1 fbodo linuxusers   9179256 Dec 26 17:43 fort.95.pe034
-rw-r--r-- 1 fbodo linuxusers   9179256 Dec 26 17:43 fort.95.pe035
-rw-r--r-- 1 fbodo linuxusers   9179256 Dec 26 17:43 fort.95.pe036
-rw-r--r-- 1 fbodo linuxusers   9179256 Dec 26 17:43 fort.95.pe037
-rw-r--r-- 1 fbodo linuxusers   9179256 Dec 26 17:43 fort.95.pe038
-rw-r--r-- 1 fbodo linuxusers   9179256 Dec 26 17:43 fort.95.pe039
-rw-r--r-- 1 fbodo linuxusers   9179256 Dec 26 17:43 fort.95.pe040
-rw-r--r-- 1 fbodo linuxusers   9179256 Dec 26 17:43 fort.95.pe041
-rw-r--r-- 1 fbodo linuxusers   9179256 Dec 26 17:43 fort.95.pe042
-rw-r--r-- 1 fbodo linuxusers   9179256 Dec 26 17:43 fort.95.pe043
-rw-r--r-- 1 fbodo linuxusers   9179256 Dec 26 17:43 fort.95.pe044
-rw-r--r-- 1 fbodo linuxusers   9179256 Dec 26 17:43 fort.95.pe045
-rw-r--r-- 1 fbodo linuxusers   9179256 Dec 26 17:43 fort.95.pe046
-rw-r--r-- 1 fbodo linuxusers   9179256 Dec 26 17:43 fort.95.pe047
-rw-r--r-- 1 fbodo linuxusers   9179256 Dec 26 17:43 fort.95.pe048
-rw-r--r-- 1 fbodo linuxusers   9179256 Dec 26 17:43 fort.95.pe049
-rw-r--r-- 1 fbodo linuxusers   9179256 Dec 26 17:43 fort.95.pe050
-rw-r--r-- 1 fbodo linuxusers   9179256 Dec 26 17:43 fort.95.pe051
-rw-r--r-- 1 fbodo linuxusers   9179256 Dec 26 17:43 fort.95.pe052
-rw-r--r-- 1 fbodo linuxusers   9179256 Dec 26 17:43 fort.95.pe053
-rw-r--r-- 1 fbodo linuxusers   9179256 Dec 26 17:43 fort.95.pe054
-rw-r--r-- 1 fbodo linuxusers   9179256 Dec 26 17:43 fort.95.pe055
-rw-r--r-- 1 fbodo linuxusers   9179256 Dec 26 17:43 fort.95.pe056
-rw-r--r-- 1 fbodo linuxusers   9179256 Dec 26 17:43 fort.95.pe057
-rw-r--r-- 1 fbodo linuxusers   9179256 Dec 26 17:43 fort.95.pe058
-rw-r--r-- 1 fbodo linuxusers   9179256 Dec 26 17:43 fort.95.pe059
-rw-r--r-- 1 fbodo linuxusers   9179256 Dec 26 17:43 fort.95.pe060
-rw-r--r-- 1 fbodo linuxusers   9179256 Dec 26 17:43 fort.95.pe061
-rw-r--r-- 1 fbodo linuxusers   9179256 Dec 26 17:43 fort.95.pe062
-rw-r--r-- 1 fbodo linuxusers   9179256 Dec 26 17:43 fort.95.pe063
-rw-r--r-- 1 fbodo linuxusers   9179256 Dec 26 17:43 fort.95.pe064
-rw-r--r-- 1 fbodo linuxusers   9179256 Dec 26 17:43 fort.95.pe065
-rw-r--r-- 1 fbodo linuxusers   9179256 Dec 26 17:43 fort.95.pe066
-rw-r--r-- 1 fbodo linuxusers   9179256 Dec 26 17:43 fort.95.pe067
-rw-r--r-- 1 fbodo linuxusers   9179256 Dec 26 17:43 fort.95.pe068
-rw-r--r-- 1 fbodo linuxusers   9179256 Dec 26 17:43 fort.95.pe069
-rw-r--r-- 1 fbodo linuxusers   9179256 Dec 26 17:43 fort.95.pe070
-rw-r--r-- 1 fbodo linuxusers   9179256 Dec 26 17:43 fort.95.pe071
-rw-r--r-- 1 fbodo linuxusers   9179256 Dec 26 17:43 fort.95.pe072
-rw-r--r-- 1 fbodo linuxusers   9179256 Dec 26 17:43 fort.95.pe073
-rw-r--r-- 1 fbodo linuxusers   9179256 Dec 26 17:43 fort.95.pe074
-rw-r--r-- 1 fbodo linuxusers   9179256 Dec 26 17:43 fort.95.pe075
-rw-r--r-- 1 fbodo linuxusers   9179256 Dec 26 17:43 fort.95.pe076
-rw-r--r-- 1 fbodo linuxusers   9179256 Dec 26 17:43 fort.95.pe077
-rw-r--r-- 1 fbodo linuxusers   9179256 Dec 26 17:43 fort.95.pe078
-rw-r--r-- 1 fbodo linuxusers   9179256 Dec 26 17:43 fort.95.pe079
-rw-r--r-- 1 fbodo linuxusers   9179256 Dec 26 17:43 fort.95.pe080
-rw-r--r-- 1 fbodo linuxusers   9179256 Dec 26 17:43 fort.95.pe081
-rw-r--r-- 1 fbodo linuxusers   9179256 Dec 26 17:43 fort.95.pe082
-rw-r--r-- 1 fbodo linuxusers   9179256 Dec 26 17:43 fort.95.pe083
-rw-r--r-- 1 fbodo linuxusers   9179256 Dec 26 17:43 fort.95.pe084
-rw-r--r-- 1 fbodo linuxusers   9179256 Dec 26 17:43 fort.95.pe085
-rw-r--r-- 1 fbodo linuxusers   9179256 Dec 26 17:43 fort.95.pe086
-rw-r--r-- 1 fbodo linuxusers   9179256 Dec 26 17:43 fort.95.pe087
-rw-r--r-- 1 fbodo linuxusers   9179256 Dec 26 17:43 fort.95.pe088
-rw-r--r-- 1 fbodo linuxusers   9179256 Dec 26 17:43 fort.95.pe089
-rw-r--r-- 1 fbodo linuxusers   9179256 Dec 26 17:43 fort.95.pe090
-rw-r--r-- 1 fbodo linuxusers   9179256 Dec 26 17:43 fort.95.pe091
-rw-r--r-- 1 fbodo linuxusers   9179256 Dec 26 17:43 fort.95.pe092
-rw-r--r-- 1 fbodo linuxusers   9179256 Dec 26 17:43 fort.95.pe093
-rw-r--r-- 1 fbodo linuxusers   9179256 Dec 26 17:43 fort.95.pe094
-rw-r--r-- 1 fbodo linuxusers   9179256 Dec 26 17:43 fort.95.pe095
-rw-r--r-- 1 fbodo linuxusers   9179256 Dec 26 17:43 fort.95.pe096
-rw-r--r-- 1 fbodo linuxusers   9179256 Dec 26 17:43 fort.95.pe097
-rw-r--r-- 1 fbodo linuxusers   9179256 Dec 26 17:43 fort.95.pe098
-rw-r--r-- 1 fbodo linuxusers   9179256 Dec 26 17:43 fort.95.pe099
-rw-r--r-- 1 fbodo linuxusers   9179256 Dec 26 17:43 fort.95.pe100
-rw-r--r-- 1 fbodo linuxusers   9179256 Dec 26 17:43 fort.95.pe101
-rw-r--r-- 1 fbodo linuxusers   9179256 Dec 26 17:43 fort.95.pe102
-rw-r--r-- 1 fbodo linuxusers   9179256 Dec 26 17:43 fort.95.pe103
-rw-r--r-- 1 fbodo linuxusers   9179256 Dec 26 17:43 fort.95.pe104
-rw-r--r-- 1 fbodo linuxusers   9179256 Dec 26 17:43 fort.95.pe105
-rw-r--r-- 1 fbodo linuxusers   9179256 Dec 26 17:43 fort.95.pe106
-rw-r--r-- 1 fbodo linuxusers   9179256 Dec 26 17:43 fort.95.pe107
-rw-r--r-- 1 fbodo linuxusers   9179256 Dec 26 17:43 fort.95.pe108
-rw-r--r-- 1 fbodo linuxusers   9179256 Dec 26 17:43 fort.95.pe109
-rw-r--r-- 1 fbodo linuxusers   9179256 Dec 26 17:43 fort.95.pe110
-rw-r--r-- 1 fbodo linuxusers   9179256 Dec 26 17:43 fort.95.pe111
-rw-r--r-- 1 fbodo linuxusers   9179256 Dec 26 17:43 fort.95.pe112
-rw-r--r-- 1 fbodo linuxusers   9179256 Dec 26 17:43 fort.95.pe113
-rw-r--r-- 1 fbodo linuxusers   9179256 Dec 26 17:43 fort.95.pe114
-rw-r--r-- 1 fbodo linuxusers   9179256 Dec 26 17:43 fort.95.pe115
-rw-r--r-- 1 fbodo linuxusers   9179256 Dec 26 17:43 fort.95.pe116
-rw-r--r-- 1 fbodo linuxusers   9179256 Dec 26 17:43 fort.95.pe117
-rw-r--r-- 1 fbodo linuxusers   9179256 Dec 26 17:43 fort.95.pe118
-rw-r--r-- 1 fbodo linuxusers   9179256 Dec 26 17:43 fort.95.pe119
-rw-r--r-- 1 fbodo linuxusers   9179256 Dec 26 17:43 fort.95.pe120
-rw-r--r-- 1 fbodo linuxusers   9179256 Dec 26 17:43 fort.95.pe121
-rw-r--r-- 1 fbodo linuxusers   9179256 Dec 26 17:43 fort.95.pe122
-rw-r--r-- 1 fbodo linuxusers   9179256 Dec 26 17:43 fort.95.pe123
-rw-r--r-- 1 fbodo linuxusers   9179256 Dec 26 17:43 fort.95.pe124
-rw-r--r-- 1 fbodo linuxusers   9179256 Dec 26 17:43 fort.95.pe125
-rw-r--r-- 1 fbodo linuxusers   9179256 Dec 26 17:43 fort.95.pe126
-rw-r--r-- 1 fbodo linuxusers   9179256 Dec 26 17:43 fort.95.pe127
-rw-r--r-- 1 fbodo linuxusers  35322513 Dec 26 17:47 fort.98
-rw-r--r-- 1 fbodo linuxusers     69042 Dec 26 17:47 HESSOPT.DAT
-rw-r----- 1 fbodo linuxusers      1403 Dec 26 10:12 INPUT
-rw-r--r-- 1 fbodo linuxusers      3122 Dec 26 10:24 optc001
-rw-r--r-- 1 fbodo linuxusers      3122 Dec 26 10:35 optc002
-rw-r--r-- 1 fbodo linuxusers      3122 Dec 26 10:46 optc003
-rw-r--r-- 1 fbodo linuxusers      3122 Dec 26 10:56 optc004
-rw-r--r-- 1 fbodo linuxusers      3122 Dec 26 11:07 optc005
-rw-r--r-- 1 fbodo linuxusers      3122 Dec 26 11:18 optc006
-rw-r--r-- 1 fbodo linuxusers      3122 Dec 26 11:30 optc007
-rw-r--r-- 1 fbodo linuxusers      3122 Dec 26 11:42 optc008
-rw-r--r-- 1 fbodo linuxusers      3122 Dec 26 11:52 optc009
-rw-r--r-- 1 fbodo linuxusers      3122 Dec 26 12:03 optc010
-rw-r--r-- 1 fbodo linuxusers      3122 Dec 26 12:15 optc011
-rw-r--r-- 1 fbodo linuxusers      3122 Dec 26 12:25 optc012
-rw-r--r-- 1 fbodo linuxusers      3122 Dec 26 12:36 optc013
-rw-r--r-- 1 fbodo linuxusers      3122 Dec 26 12:45 optc014
-rw-r--r-- 1 fbodo linuxusers      3122 Dec 26 12:57 optc015
-rw-r--r-- 1 fbodo linuxusers      3122 Dec 26 13:07 optc016
-rw-r--r-- 1 fbodo linuxusers      3122 Dec 26 13:19 optc017
-rw-r--r-- 1 fbodo linuxusers      3122 Dec 26 13:30 optc018
-rw-r--r-- 1 fbodo linuxusers      3122 Dec 26 13:41 optc019
-rw-r--r-- 1 fbodo linuxusers      3122 Dec 26 13:51 optc020
-rw-r--r-- 1 fbodo linuxusers      3122 Dec 26 14:00 optc021
-rw-r--r-- 1 fbodo linuxusers      3122 Dec 26 14:08 optc022
-rw-r--r-- 1 fbodo linuxusers      3122 Dec 26 14:18 optc023
-rw-r--r-- 1 fbodo linuxusers      3122 Dec 26 14:26 optc024
-rw-r--r-- 1 fbodo linuxusers      3122 Dec 26 14:34 optc025
-rw-r--r-- 1 fbodo linuxusers      3122 Dec 26 14:42 optc026
-rw-r--r-- 1 fbodo linuxusers      3122 Dec 26 14:51 optc027
-rw-r--r-- 1 fbodo linuxusers      3122 Dec 26 14:59 optc028
-rw-r--r-- 1 fbodo linuxusers      3122 Dec 26 15:07 optc029
-rw-r--r-- 1 fbodo linuxusers      3122 Dec 26 15:16 optc030
-rw-r--r-- 1 fbodo linuxusers      3122 Dec 26 15:24 optc031
-rw-r--r-- 1 fbodo linuxusers      3122 Dec 26 15:30 optc032
-rw-r--r-- 1 fbodo linuxusers      3122 Dec 26 15:38 optc033
-rw-r--r-- 1 fbodo linuxusers      3122 Dec 26 15:47 optc034
-rw-r--r-- 1 fbodo linuxusers      3122 Dec 26 15:56 optc035
-rw-r--r-- 1 fbodo linuxusers      3122 Dec 26 16:05 optc036
-rw-r--r-- 1 fbodo linuxusers      3122 Dec 26 16:14 optc037
-rw-r--r-- 1 fbodo linuxusers      3122 Dec 26 16:22 optc038
-rw-r--r-- 1 fbodo linuxusers      3122 Dec 26 16:30 optc039
-rw-r--r-- 1 fbodo linuxusers      3122 Dec 26 16:37 optc040
-rw-r--r-- 1 fbodo linuxusers      3122 Dec 26 16:48 optc041
-rw-r--r-- 1 fbodo linuxusers      3122 Dec 26 16:57 optc042
-rw-r--r-- 1 fbodo linuxusers      3122 Dec 26 17:02 optc043
-rw-r--r-- 1 fbodo linuxusers      3122 Dec 26 17:10 optc044
-rw-r--r-- 1 fbodo linuxusers      3122 Dec 26 17:19 optc045
-rw-r--r-- 1 fbodo linuxusers      3122 Dec 26 17:28 optc046
-rw-r--r-- 1 fbodo linuxusers      3122 Dec 26 17:35 optc047
-rw-r--r-- 1 fbodo linuxusers      3122 Dec 26 17:41 optc048
-rw-r--r-- 1 fbodo linuxusers      3122 Dec 26 17:47 optc049
-rw-r----- 1 fbodo linuxusers  84805704 Dec 26 17:47 OPTINFO.DAT
-rwxr-xr-x 1 fbodo linuxusers 112779232 Dec 26 10:12 Pcrystal
lrwxrwxrwx 1 fbodo linuxusers        84 Dec 26 10:12 SCFOUT.LOG -> /users/fbodo/Application/fbodo/Fili/Mg(IO3)2/P21/MgIO32_p21_OPT_exp_pbe0d3_2GPa.out2
================================================================================
Copying output file back on run directory...
================================================================================
Removing temporary directory /lustre/scratch/client/users/fbodo/prova/tmp_p2597090 from each node...
Job terminated
